* Spice description of arlet6502_cts_r
* Spice driver version -874538072
* Date ( dd/mm/yyyy hh:mm:ss ):  7/06/2024 at  1:08:56

* INTERF a[0] a[1] a[2] a[3] a[4] a[5] a[6] a[7] a[8] a[9] a[10] a[11] a[12] 
* INTERF a[13] a[14] a[15] clk di[0] di[1] di[2] di[3] di[4] di[5] di[6] 
* INTERF di[7] do[0] do[1] do[2] do[3] do[4] do[5] do[6] do[7] irq nmi rdy 
* INTERF reset vdd vss we 


.subckt arlet6502_cts_r 2182 1530 1978 1490 1525 1474 3300 3063 2390 8156 8136 8109 8089 8066 8038 8015 4022 8055 7970 7803 6987 6804 6485 5880 4712 2502 1742 1753 1306 7406 6466 5833 4929 4230 1699 4079 3792 8144 8185 1368 
* NET 65 = subckt_1739_sff1_x4.sff_s
* NET 67 = subckt_1739_sff1_x4.y
* NET 69 = subckt_1739_sff1_x4.sff_m
* NET 70 = subckt_1739_sff1_x4.u
* NET 71 = subckt_1739_sff1_x4.ckr
* NET 72 = subckt_1739_sff1_x4.nckr
* NET 73 = subckt_1622_sff1_x4.sff_s
* NET 75 = subckt_1622_sff1_x4.y
* NET 76 = subckt_1622_sff1_x4.sff_m
* NET 79 = subckt_1622_sff1_x4.u
* NET 80 = subckt_1622_sff1_x4.ckr
* NET 81 = subckt_1622_sff1_x4.nckr
* NET 83 = subckt_1623_sff1_x4.sff_s
* NET 85 = subckt_1623_sff1_x4.y
* NET 87 = subckt_1623_sff1_x4.sff_m
* NET 88 = subckt_1623_sff1_x4.u
* NET 89 = subckt_1623_sff1_x4.ckr
* NET 90 = subckt_1623_sff1_x4.nckr
* NET 91 = abc_11867_auto_rtlil_cc_2608_muxgate_11616
* NET 96 = subckt_1637_sff1_x4.sff_s
* NET 99 = subckt_1637_sff1_x4.y
* NET 100 = subckt_1637_sff1_x4.sff_m
* NET 101 = subckt_1637_sff1_x4.u
* NET 103 = subckt_1637_sff1_x4.ckr
* NET 104 = subckt_1637_sff1_x4.nckr
* NET 106 = subckt_1650_sff1_x4.sff_s
* NET 107 = subckt_1650_sff1_x4.y
* NET 110 = subckt_1650_sff1_x4.sff_m
* NET 111 = subckt_1650_sff1_x4.u
* NET 112 = subckt_1650_sff1_x4.ckr
* NET 113 = subckt_1650_sff1_x4.nckr
* NET 115 = subckt_1632_sff1_x4.sff_s
* NET 116 = subckt_1632_sff1_x4.y
* NET 119 = subckt_1632_sff1_x4.sff_m
* NET 120 = subckt_1632_sff1_x4.u
* NET 121 = subckt_1632_sff1_x4.ckr
* NET 122 = subckt_1632_sff1_x4.nckr
* NET 123 = subckt_1647_sff1_x4.sff_s
* NET 125 = subckt_1647_sff1_x4.y
* NET 126 = subckt_1647_sff1_x4.sff_m
* NET 129 = subckt_1647_sff1_x4.u
* NET 130 = subckt_1647_sff1_x4.ckr
* NET 131 = subckt_1647_sff1_x4.nckr
* NET 133 = subckt_1617_sff1_x4.sff_s
* NET 134 = subckt_1617_sff1_x4.y
* NET 137 = subckt_1617_sff1_x4.sff_m
* NET 138 = subckt_1617_sff1_x4.u
* NET 139 = subckt_1617_sff1_x4.ckr
* NET 140 = subckt_1617_sff1_x4.nckr
* NET 141 = abc_11867_auto_rtlil_cc_2608_muxgate_11604
* NET 146 = subckt_1631_sff1_x4.sff_s
* NET 148 = subckt_1631_sff1_x4.y
* NET 149 = subckt_1631_sff1_x4.sff_m
* NET 152 = subckt_1631_sff1_x4.u
* NET 153 = subckt_1631_sff1_x4.ckr
* NET 154 = subckt_1631_sff1_x4.nckr
* NET 159 = abc_11867_new_n872
* NET 161 = abc_11867_new_n871
* NET 163 = abc_11867_new_n877
* NET 165 = abc_11867_new_n878
* NET 166 = abc_11867_new_n860
* NET 169 = subckt_1655_sff1_x4.sff_s
* NET 170 = subckt_1655_sff1_x4.y
* NET 173 = subckt_1655_sff1_x4.sff_m
* NET 174 = subckt_1655_sff1_x4.u
* NET 175 = subckt_1655_sff1_x4.ckr
* NET 176 = subckt_1655_sff1_x4.nckr
* NET 177 = abc_11867_auto_rtlil_cc_2608_muxgate_11670
* NET 185 = abc_11867_new_n608
* NET 187 = abc_11867_new_n1175
* NET 190 = mos6502_nmi_1
* NET 192 = subckt_1656_sff1_x4.sff_s
* NET 193 = subckt_1656_sff1_x4.y
* NET 196 = subckt_1656_sff1_x4.sff_m
* NET 197 = subckt_1656_sff1_x4.u
* NET 198 = subckt_1656_sff1_x4.ckr
* NET 199 = subckt_1656_sff1_x4.nckr
* NET 248 = subckt_1653_sff1_x4.sff_s
* NET 249 = subckt_1653_sff1_x4.y
* NET 250 = subckt_1653_sff1_x4.sff_m
* NET 253 = subckt_1653_sff1_x4.ckr
* NET 254 = subckt_1653_sff1_x4.u
* NET 255 = subckt_1653_sff1_x4.nckr
* NET 256 = abc_11867_auto_rtlil_cc_2608_muxgate_11664
* NET 261 = abc_11867_auto_rtlil_cc_2608_muxgate_11614
* NET 266 = mos6502_axys_2_6
* NET 268 = mos6502_axys_3_6
* NET 272 = abc_11867_auto_rtlil_cc_2608_muxgate_11632
* NET 273 = mos6502_axys_0_6
* NET 278 = subckt_1648_sff1_x4.sff_s
* NET 280 = subckt_1648_sff1_x4.y
* NET 282 = subckt_1648_sff1_x4.sff_m
* NET 284 = subckt_1648_sff1_x4.u
* NET 285 = subckt_1648_sff1_x4.ckr
* NET 286 = subckt_1648_sff1_x4.nckr
* NET 287 = abc_11867_auto_rtlil_cc_2608_muxgate_11654
* NET 292 = abc_11867_auto_rtlil_cc_2608_muxgate_11622
* NET 298 = subckt_1634_sff1_x4.sff_s
* NET 299 = subckt_1634_sff1_x4.y
* NET 302 = subckt_1634_sff1_x4.sff_m
* NET 303 = subckt_1634_sff1_x4.ckr
* NET 304 = subckt_1634_sff1_x4.u
* NET 305 = subckt_1634_sff1_x4.nckr
* NET 306 = abc_11867_auto_rtlil_cc_2608_muxgate_11652
* NET 312 = subckt_1649_sff1_x4.sff_s
* NET 313 = subckt_1649_sff1_x4.y
* NET 316 = subckt_1649_sff1_x4.sff_m
* NET 317 = subckt_1649_sff1_x4.ckr
* NET 318 = subckt_1649_sff1_x4.u
* NET 319 = subckt_1649_sff1_x4.nckr
* NET 320 = abc_11867_auto_rtlil_cc_2608_muxgate_11620
* NET 325 = subckt_1633_sff1_x4.sff_s
* NET 327 = subckt_1633_sff1_x4.y
* NET 329 = subckt_1633_sff1_x4.sff_m
* NET 330 = subckt_1633_sff1_x4.u
* NET 332 = subckt_1633_sff1_x4.ckr
* NET 333 = subckt_1633_sff1_x4.nckr
* NET 334 = abc_11867_new_n873
* NET 342 = abc_11867_new_n868
* NET 343 = abc_11867_new_n864
* NET 344 = abc_11867_new_n874
* NET 349 = abc_11867_new_n865
* NET 352 = abc_11867_new_n876
* NET 354 = abc_11867_new_n875
* NET 359 = abc_11867_new_n863
* NET 365 = abc_11867_new_n870
* NET 369 = abc_11867_new_n428
* NET 370 = abc_11867_new_n608_hfns_2
* NET 375 = abc_11867_new_n475
* NET 378 = abc_11867_new_n471
* NET 384 = abc_11867_new_n431_hfns_2
* NET 386 = abc_11867_new_n431
* NET 469 = subckt_1744_sff1_x4.sff_s
* NET 470 = subckt_1744_sff1_x4.y
* NET 472 = subckt_1744_sff1_x4.sff_m
* NET 474 = subckt_1744_sff1_x4.u
* NET 475 = subckt_1744_sff1_x4.ckr
* NET 476 = subckt_1744_sff1_x4.nckr
* NET 478 = subckt_1654_sff1_x4.sff_s
* NET 479 = subckt_1654_sff1_x4.y
* NET 480 = subckt_1654_sff1_x4.sff_m
* NET 483 = subckt_1654_sff1_x4.u
* NET 484 = subckt_1654_sff1_x4.ckr
* NET 485 = subckt_1654_sff1_x4.nckr
* NET 486 = subckt_1652_sff1_x4.sff_s
* NET 489 = subckt_1652_sff1_x4.y
* NET 491 = subckt_1652_sff1_x4.sff_m
* NET 492 = subckt_1652_sff1_x4.u
* NET 493 = subckt_1652_sff1_x4.ckr
* NET 494 = subckt_1652_sff1_x4.nckr
* NET 496 = abc_11867_auto_rtlil_cc_2608_muxgate_11662
* NET 497 = mos6502_axys_2_5
* NET 498 = mos6502_axys_3_5
* NET 505 = subckt_1620_sff1_x4.y
* NET 506 = subckt_1620_sff1_x4.sff_s
* NET 507 = subckt_1620_sff1_x4.sff_m
* NET 509 = subckt_1620_sff1_x4.u
* NET 510 = subckt_1620_sff1_x4.ckr
* NET 511 = subckt_1620_sff1_x4.nckr
* NET 512 = mos6502_axys_2_1
* NET 514 = mos6502_axys_0_1
* NET 517 = mos6502_axys_3_1
* NET 519 = subckt_1618_sff1_x4.sff_s
* NET 521 = subckt_1618_sff1_x4.y
* NET 523 = subckt_1618_sff1_x4.sff_m
* NET 524 = subckt_1618_sff1_x4.u
* NET 525 = subckt_1618_sff1_x4.ckr
* NET 526 = subckt_1618_sff1_x4.nckr
* NET 528 = abc_11867_auto_rtlil_cc_2608_muxgate_11606
* NET 529 = mos6502_axys_2_0
* NET 530 = mos6502_axys_3_0
* NET 532 = mos6502_axys_0_0
* NET 535 = mos6502_axys_0_2
* NET 540 = subckt_1619_sff1_x4.sff_s
* NET 541 = subckt_1619_sff1_x4.y
* NET 543 = subckt_1619_sff1_x4.sff_m
* NET 545 = subckt_1619_sff1_x4.u
* NET 546 = subckt_1619_sff1_x4.ckr
* NET 547 = subckt_1619_sff1_x4.nckr
* NET 549 = abc_11867_auto_rtlil_cc_2608_muxgate_11624
* NET 551 = abc_11867_new_n867
* NET 553 = abc_11867_new_n862
* NET 557 = abc_11867_new_n1411
* NET 558 = abc_11867_new_n857
* NET 559 = abc_11867_new_n859
* NET 562 = abc_11867_new_n476
* NET 565 = abc_11867_new_n856
* NET 568 = abc_11867_new_n475_hfns_3
* NET 574 = abc_11867_new_n490
* NET 576 = abc_11867_new_n482
* NET 579 = abc_11867_new_n430
* NET 647 = subckt_1756_sff1_x4.sff_s
* NET 648 = subckt_1756_sff1_x4.sff_m
* NET 649 = subckt_1756_sff1_x4.y
* NET 651 = subckt_1756_sff1_x4.ckr
* NET 652 = subckt_1756_sff1_x4.u
* NET 653 = subckt_1756_sff1_x4.nckr
* NET 654 = abc_11867_auto_rtlil_cc_2608_muxgate_11860
* NET 659 = abc_11867_auto_rtlil_cc_2608_muxgate_11666
* NET 664 = subckt_1624_sff1_x4.sff_s
* NET 665 = subckt_1624_sff1_x4.sff_m
* NET 666 = subckt_1624_sff1_x4.y
* NET 668 = subckt_1624_sff1_x4.ckr
* NET 669 = subckt_1624_sff1_x4.u
* NET 670 = subckt_1624_sff1_x4.nckr
* NET 671 = abc_11867_auto_rtlil_cc_2608_muxgate_11618
* NET 676 = mos6502_axys_2_7
* NET 677 = mos6502_axys_3_7
* NET 684 = subckt_1636_sff1_x4.sff_s
* NET 685 = mos6502_axys_0_5
* NET 686 = subckt_1636_sff1_x4.sff_m
* NET 688 = subckt_1636_sff1_x4.y
* NET 691 = abc_11867_auto_rtlil_cc_2608_muxgate_11630
* NET 692 = subckt_1636_sff1_x4.ckr
* NET 693 = subckt_1636_sff1_x4.u
* NET 694 = subckt_1636_sff1_x4.nckr
* NET 697 = abc_11867_auto_rtlil_cc_2608_muxgate_11658
* NET 703 = mos6502_axys_2_3
* NET 709 = mos6502_axys_0_3
* NET 710 = abc_11867_auto_rtlil_cc_2608_muxgate_11626
* NET 715 = subckt_1640_sff1_x4.sff_s
* NET 716 = subckt_1640_sff1_x4.sff_m
* NET 718 = subckt_1640_sff1_x4.y
* NET 721 = subckt_1640_sff1_x4.u
* NET 722 = subckt_1640_sff1_x4.ckr
* NET 723 = subckt_1640_sff1_x4.nckr
* NET 724 = abc_11867_auto_rtlil_cc_2608_muxgate_11656
* NET 725 = mos6502_axys_2_2
* NET 730 = subckt_1651_sff1_x4.sff_s
* NET 732 = subckt_1651_sff1_x4.sff_m
* NET 733 = subckt_1651_sff1_x4.y
* NET 736 = subckt_1651_sff1_x4.ckr
* NET 737 = subckt_1651_sff1_x4.u
* NET 738 = subckt_1651_sff1_x4.nckr
* NET 739 = mos6502_axys_3_2
* NET 740 = abc_11867_auto_rtlil_cc_2608_muxgate_11608
* NET 747 = subckt_1621_sff1_x4.sff_s
* NET 748 = subckt_1621_sff1_x4.sff_m
* NET 749 = subckt_1621_sff1_x4.y
* NET 751 = abc_11867_auto_rtlil_cc_2608_muxgate_11612
* NET 752 = subckt_1621_sff1_x4.ckr
* NET 753 = subckt_1621_sff1_x4.u
* NET 754 = subckt_1621_sff1_x4.nckr
* NET 760 = abc_11867_new_n858
* NET 762 = abc_11867_new_n1424
* NET 763 = abc_11867_new_n1410
* NET 764 = abc_11867_new_n640
* NET 774 = abc_11867_new_n380
* NET 778 = abc_11867_new_n654
* NET 782 = abc_11867_new_n471_hfns_3
* NET 786 = abc_11867_new_n482_hfns_2
* NET 791 = abc_11867_new_n473
* NET 850 = subckt_1748_sff1_x4.sff_s
* NET 851 = subckt_1748_sff1_x4.y
* NET 853 = subckt_1748_sff1_x4.sff_m
* NET 855 = subckt_1748_sff1_x4.u
* NET 856 = subckt_1748_sff1_x4.ckr
* NET 857 = subckt_1748_sff1_x4.nckr
* NET 865 = abc_11867_new_n1906
* NET 868 = subckt_1646_sff1_x4.sff_s
* NET 869 = subckt_1646_sff1_x4.y
* NET 871 = subckt_1646_sff1_x4.sff_m
* NET 873 = subckt_1646_sff1_x4.u
* NET 874 = subckt_1646_sff1_x4.ckr
* NET 875 = subckt_1646_sff1_x4.nckr
* NET 877 = subckt_1644_sff1_x4.sff_s
* NET 879 = subckt_1644_sff1_x4.y
* NET 880 = subckt_1644_sff1_x4.sff_m
* NET 882 = subckt_1644_sff1_x4.u
* NET 883 = subckt_1644_sff1_x4.ckr
* NET 884 = subckt_1644_sff1_x4.nckr
* NET 885 = abc_11867_auto_rtlil_cc_2608_muxgate_11646
* NET 890 = abc_11867_auto_rtlil_cc_2608_muxgate_11650
* NET 899 = abc_11867_auto_rtlil_cc_2608_muxgate_11610
* NET 900 = mos6502_axys_3_3
* NET 903 = abc_11867_new_n1103
* NET 907 = subckt_1642_sff1_x4.sff_s
* NET 909 = subckt_1642_sff1_x4.y
* NET 911 = subckt_1642_sff1_x4.sff_m
* NET 912 = subckt_1642_sff1_x4.u
* NET 913 = subckt_1642_sff1_x4.nckr
* NET 914 = subckt_1642_sff1_x4.ckr
* NET 915 = abc_11867_auto_rtlil_cc_2608_muxgate_11638
* NET 920 = abc_11867_auto_rtlil_cc_2608_muxgate_11660
* NET 923 = abc_11867_new_n1166
* NET 927 = subckt_1635_sff1_x4.sff_s
* NET 929 = subckt_1635_sff1_x4.y
* NET 931 = subckt_1635_sff1_x4.sff_m
* NET 932 = subckt_1635_sff1_x4.u
* NET 933 = subckt_1635_sff1_x4.ckr
* NET 934 = subckt_1635_sff1_x4.nckr
* NET 935 = abc_11867_auto_rtlil_cc_2608_muxgate_11628
* NET 939 = abc_11867_new_n1148
* NET 942 = abc_11867_new_n1421
* NET 943 = abc_11867_new_n1426
* NET 946 = abc_11867_new_n1407
* NET 947 = abc_11867_new_n1412
* NET 948 = abc_11867_new_n1409
* NET 955 = abc_11867_new_n1423
* NET 956 = abc_11867_new_n1425
* NET 957 = abc_11867_new_n663
* NET 963 = abc_11867_new_n426
* NET 965 = abc_11867_new_n490_hfns_2
* NET 969 = abc_11867_new_n430_hfns_2
* NET 1019 = subckt_1645_sff1_x4.sff_s
* NET 1020 = subckt_1645_sff1_x4.y
* NET 1022 = subckt_1645_sff1_x4.sff_m
* NET 1024 = subckt_1645_sff1_x4.u
* NET 1025 = subckt_1645_sff1_x4.nckr
* NET 1026 = subckt_1645_sff1_x4.ckr
* NET 1030 = subckt_1738_sff1_x4.sff_s
* NET 1031 = subckt_1738_sff1_x4.y
* NET 1033 = subckt_1738_sff1_x4.sff_m
* NET 1035 = subckt_1738_sff1_x4.ckr
* NET 1036 = subckt_1738_sff1_x4.u
* NET 1037 = subckt_1738_sff1_x4.nckr
* NET 1038 = abc_11867_auto_rtlil_cc_2608_muxgate_11648
* NET 1043 = mos6502_axys_1_6
* NET 1047 = abc_11867_new_n1030
* NET 1048 = mos6502_axys_1_7
* NET 1052 = abc_11867_new_n1022
* NET 1055 = subckt_1721_sff1_x4.sff_s
* NET 1056 = subckt_1721_sff1_x4.y
* NET 1058 = subckt_1721_sff1_x4.sff_m
* NET 1060 = subckt_1721_sff1_x4.u
* NET 1061 = subckt_1721_sff1_x4.ckr
* NET 1062 = subckt_1721_sff1_x4.nckr
* NET 1063 = mos6502_axys_0_7
* NET 1064 = subckt_1638_sff1_x4.sff_s
* NET 1066 = subckt_1638_sff1_x4.y
* NET 1067 = subckt_1638_sff1_x4.sff_m
* NET 1069 = abc_11867_auto_rtlil_cc_2608_muxgate_11634
* NET 1070 = subckt_1638_sff1_x4.u
* NET 1072 = subckt_1638_sff1_x4.ckr
* NET 1073 = subckt_1638_sff1_x4.nckr
* NET 1074 = abc_11867_auto_rtlil_cc_2608_muxgate_11642
* NET 1080 = subckt_1639_sff1_x4.sff_s
* NET 1081 = subckt_1639_sff1_x4.y
* NET 1083 = subckt_1639_sff1_x4.sff_m
* NET 1085 = subckt_1639_sff1_x4.ckr
* NET 1086 = subckt_1639_sff1_x4.u
* NET 1087 = subckt_1639_sff1_x4.nckr
* NET 1088 = mos6502_axys_1_1
* NET 1091 = abc_11867_auto_rtlil_cc_2608_muxgate_11636
* NET 1097 = subckt_1643_sff1_x4.sff_s
* NET 1099 = subckt_1643_sff1_x4.y
* NET 1101 = subckt_1643_sff1_x4.sff_m
* NET 1102 = subckt_1643_sff1_x4.u
* NET 1104 = subckt_1643_sff1_x4.ckr
* NET 1105 = subckt_1643_sff1_x4.nckr
* NET 1110 = abc_11867_new_n881
* NET 1111 = mos6502_axys_2_4
* NET 1113 = mos6502_axys_0_4
* NET 1114 = abc_11867_new_n882
* NET 1115 = abc_11867_new_n883
* NET 1116 = mos6502_axys_3_4
* NET 1119 = abc_11867_new_n1414
* NET 1120 = abc_11867_new_n1427
* NET 1123 = abc_11867_new_n1102
* NET 1132 = abc_11867_new_n1101
* NET 1133 = abc_11867_new_n959
* NET 1139 = abc_11867_new_n1413
* NET 1140 = abc_11867_new_n639
* NET 1145 = abc_11867_new_n1100
* NET 1148 = abc_11867_new_n766
* NET 1150 = abc_11867_new_n861
* NET 1154 = abc_11867_new_n656
* NET 1157 = abc_11867_new_n517
* NET 1167 = abc_11867_new_n606
* NET 1168 = abc_11867_new_n602
* NET 1169 = abc_11867_new_n599
* NET 1173 = abc_11867_new_n605
* NET 1184 = abc_11867_new_n426_hfns_2
* NET 1190 = abc_11867_new_n473_hfns_3
* NET 1284 = abc_11867_new_n1914
* NET 1287 = abc_11867_new_n1907
* NET 1292 = abc_11867_new_n1909
* NET 1293 = abc_11867_new_n1723
* NET 1295 = abc_11867_new_n1724
* NET 1296 = abc_11867_new_n1910
* NET 1297 = abc_11867_new_n1920
* NET 1298 = abc_11867_new_n1913
* NET 1301 = abc_11867_new_n1725
* NET 1304 = mos6502_axys_1_5
* NET 1306 = do[3]
* NET 1307 = abc_11867_auto_rtlil_cc_2608_muxgate_11790
* NET 1313 = abc_11867_new_n909
* NET 1315 = abc_11867_new_n999
* NET 1317 = mos6502_axys_1_3
* NET 1325 = abc_11867_new_n917
* NET 1327 = abc_11867_new_n914
* NET 1330 = abc_11867_auto_rtlil_cc_2608_muxgate_11644
* NET 1332 = abc_11867_new_n1157
* NET 1335 = mos6502_axys_1_4
* NET 1338 = subckt_1717_sff1_x4.sff_s
* NET 1339 = subckt_1717_sff1_x4.y
* NET 1342 = subckt_1717_sff1_x4.sff_m
* NET 1343 = subckt_1717_sff1_x4.u
* NET 1344 = subckt_1717_sff1_x4.ckr
* NET 1345 = subckt_1717_sff1_x4.nckr
* NET 1346 = abc_11867_new_n915
* NET 1348 = abc_11867_new_n916
* NET 1352 = abc_11867_new_n479
* NET 1353 = abc_11867_new_n383
* NET 1355 = abc_11867_new_n951
* NET 1356 = abc_11867_new_n1467
* NET 1357 = abc_11867_new_n1668
* NET 1358 = abc_11867_new_n1422
* NET 1359 = abc_11867_new_n1408
* NET 1361 = abc_11867_new_n1434
* NET 1362 = abc_11867_new_n855
* NET 1364 = abc_11867_new_n658
* NET 1365 = abc_11867_new_n966
* NET 1368 = we
* NET 1372 = abc_11867_new_n524
* NET 1375 = abc_11867_new_n690
* NET 1377 = abc_11867_new_n689
* NET 1381 = abc_11867_new_n641
* NET 1384 = abc_11867_new_n638
* NET 1389 = abc_11867_new_n659
* NET 1390 = abc_11867_new_n660
* NET 1446 = abc_11867_new_n1357
* NET 1451 = abc_11867_new_n1720
* NET 1455 = abc_11867_new_n1718
* NET 1466 = abc_11867_new_n1670
* NET 1467 = abc_11867_new_n1676
* NET 1473 = abc_11867_new_n1014
* NET 1474 = a[5]
* NET 1476 = abc_11867_new_n942
* NET 1477 = abc_11867_new_n943
* NET 1479 = subckt_1719_sff1_x4.sff_s
* NET 1481 = subckt_1719_sff1_x4.y
* NET 1483 = subckt_1719_sff1_x4.sff_m
* NET 1484 = subckt_1719_sff1_x4.u
* NET 1486 = subckt_1719_sff1_x4.ckr
* NET 1487 = subckt_1719_sff1_x4.nckr
* NET 1488 = abc_11867_auto_rtlil_cc_2608_muxgate_11786
* NET 1490 = a[3]
* NET 1497 = abc_11867_new_n983
* NET 1499 = mos6502_axys_1_2
* NET 1501 = subckt_1641_sff1_x4.sff_s
* NET 1502 = subckt_1641_sff1_x4.y
* NET 1504 = subckt_1641_sff1_x4.sff_m
* NET 1506 = abc_11867_auto_rtlil_cc_2608_muxgate_11640
* NET 1507 = subckt_1641_sff1_x4.ckr
* NET 1508 = subckt_1641_sff1_x4.u
* NET 1509 = subckt_1641_sff1_x4.nckr
* NET 1510 = subckt_1720_sff1_x4.sff_s
* NET 1512 = subckt_1720_sff1_x4.y
* NET 1514 = subckt_1720_sff1_x4.sff_m
* NET 1515 = subckt_1720_sff1_x4.u
* NET 1517 = subckt_1720_sff1_x4.ckr
* NET 1518 = subckt_1720_sff1_x4.nckr
* NET 1519 = abc_11867_auto_rtlil_cc_2608_muxgate_11788
* NET 1525 = a[4]
* NET 1526 = abc_11867_auto_rtlil_cc_2608_muxgate_11782
* NET 1530 = a[1]
* NET 1535 = abc_11867_new_n1420
* NET 1538 = abc_11867_new_n1417
* NET 1539 = abc_11867_new_n1415
* NET 1541 = abc_11867_new_n1418
* NET 1543 = abc_11867_new_n604
* NET 1545 = abc_11867_new_n1465
* NET 1546 = abc_11867_new_n1466
* NET 1547 = abc_11867_new_n1468
* NET 1550 = abc_11867_new_n965
* NET 1553 = abc_11867_new_n768
* NET 1558 = abc_11867_new_n1667
* NET 1559 = abc_11867_new_n598
* NET 1565 = abc_11867_new_n608_hfns_1
* NET 1570 = abc_11867_new_n509
* NET 1571 = abc_11867_new_n484
* NET 1576 = abc_11867_new_n774
* NET 1583 = abc_11867_new_n777
* NET 1587 = abc_11867_new_n613
* NET 1588 = abc_11867_new_n567
* NET 1589 = abc_11867_new_n603
* NET 1590 = abc_11867_new_n691
* NET 1593 = abc_11867_new_n580
* NET 1597 = abc_11867_new_n578
* NET 1611 = abc_11867_new_n725
* NET 1615 = abc_11867_new_n657
* NET 1616 = abc_11867_new_n652
* NET 1617 = abc_11867_new_n726
* NET 1618 = abc_11867_new_n729
* NET 1619 = abc_11867_new_n730
* NET 1621 = subckt_1630_sff1_x4.sff_s
* NET 1622 = subckt_1630_sff1_x4.y
* NET 1623 = subckt_1630_sff1_x4.sff_m
* NET 1626 = subckt_1630_sff1_x4.u
* NET 1627 = subckt_1630_sff1_x4.ckr
* NET 1628 = subckt_1630_sff1_x4.nckr
* NET 1699 = nmi
* NET 1701 = subckt_1749_sff1_x4.sff_s
* NET 1702 = subckt_1749_sff1_x4.y
* NET 1704 = subckt_1749_sff1_x4.sff_m
* NET 1706 = subckt_1749_sff1_x4.ckr
* NET 1707 = subckt_1749_sff1_x4.u
* NET 1708 = subckt_1749_sff1_x4.nckr
* NET 1710 = abc_11867_new_n1717
* NET 1711 = abc_11867_new_n1740
* NET 1719 = abc_11867_new_n1728
* NET 1727 = abc_11867_new_n1760
* NET 1729 = abc_11867_new_n1699
* NET 1732 = abc_11867_new_n1698
* NET 1738 = abc_11867_new_n927
* NET 1739 = abc_11867_new_n926
* NET 1741 = abc_11867_new_n895
* NET 1742 = do[1]
* NET 1743 = abc_11867_new_n935
* NET 1744 = abc_11867_new_n936
* NET 1746 = spare_buffer_19.q
* NET 1752 = abc_11867_new_n902
* NET 1753 = do[2]
* NET 1758 = mos6502_axys_1_0
* NET 1760 = abc_11867_new_n893
* NET 1761 = abc_11867_new_n894
* NET 1766 = subckt_1718_sff1_x4.sff_s
* NET 1767 = subckt_1718_sff1_x4.y
* NET 1768 = subckt_1718_sff1_x4.sff_m
* NET 1770 = subckt_1718_sff1_x4.u
* NET 1772 = clk_root_tr_2
* NET 1773 = subckt_1718_sff1_x4.ckr
* NET 1774 = subckt_1718_sff1_x4.nckr
* NET 1776 = abc_11867_new_n954
* NET 1778 = abc_11867_new_n953
* NET 1780 = abc_11867_new_n949
* NET 1782 = abc_11867_new_n1419
* NET 1785 = abc_11867_new_n1429
* NET 1788 = abc_11867_new_n1688
* NET 1790 = abc_11867_new_n1442
* NET 1792 = abc_11867_new_n1435
* NET 1795 = abc_11867_new_n1436
* NET 1796 = abc_11867_new_n625
* NET 1798 = abc_11867_new_n500
* NET 1799 = mos6502_state[5]
* NET 1800 = abc_11867_new_n429
* NET 1806 = abc_11867_new_n569
* NET 1807 = reset_root_tl_0
* NET 1809 = spare_buffer_14.q
* NET 1813 = abc_11867_new_n809
* NET 1816 = abc_11867_new_n830
* NET 1817 = abc_11867_new_n832
* NET 1818 = abc_11867_new_n831
* NET 1819 = abc_11867_new_n829
* NET 1821 = abc_11867_new_n775
* NET 1825 = abc_11867_new_n665
* NET 1827 = abc_11867_new_n664
* NET 1877 = subckt_1740_sff1_x4.y
* NET 1878 = subckt_1740_sff1_x4.sff_m
* NET 1887 = abc_11867_new_n583
* NET 1889 = abc_11867_new_n1437
* NET 1890 = abc_11867_new_n1441
* NET 1891 = abc_11867_new_n565
* NET 1892 = abc_11867_new_n581
* NET 1893 = abc_11867_new_n584
* NET 1897 = abc_11867_new_n644
* NET 1898 = abc_11867_new_n645
* NET 1899 = abc_11867_new_n823
* NET 1902 = abc_11867_new_n825
* NET 1904 = abc_11867_new_n525
* NET 1905 = abc_11867_new_n521
* NET 1909 = abc_11867_new_n1598
* NET 1910 = abc_11867_auto_rtlil_cc_2608_muxgate_11836
* NET 1913 = subckt_1740_sff1_x4.sff_s
* NET 1917 = subckt_1740_sff1_x4.ckr
* NET 1918 = subckt_1740_sff1_x4.u
* NET 1919 = subckt_1740_sff1_x4.nckr
* NET 1924 = abc_11867_new_n1745
* NET 1925 = abc_11867_new_n1739
* NET 1928 = abc_11867_new_n1908
* NET 1929 = abc_11867_new_n1746
* NET 1932 = abc_11867_new_n1738
* NET 1936 = abc_11867_new_n1697
* NET 1943 = abc_11867_new_n1696
* NET 1951 = clk_root_tr_1
* NET 1954 = abc_11867_new_n1912
* NET 1956 = abc_11867_new_n907
* NET 1957 = abc_11867_new_n908
* NET 1962 = abc_11867_new_n1669
* NET 1964 = abc_11867_new_n900
* NET 1965 = abc_11867_new_n901
* NET 1966 = abc_11867_new_n991
* NET 1968 = abc_11867_new_n954_hfns_2
* NET 1974 = abc_11867_auto_rtlil_cc_2608_muxgate_11784
* NET 1978 = a[2]
* NET 1985 = abc_11867_new_n1687
* NET 1986 = abc_11867_new_n530
* NET 1992 = abc_11867_new_n600
* NET 1996 = abc_11867_new_n563
* NET 1999 = abc_11867_new_n958
* NET 2003 = abc_11867_new_n1430
* NET 2005 = abc_11867_new_n1440
* NET 2006 = abc_11867_new_n850
* NET 2011 = abc_11867_new_n851
* NET 2013 = abc_11867_new_n853
* NET 2019 = spare_buffer_13.q
* NET 2022 = abc_11867_new_n776
* NET 2027 = abc_11867_new_n646
* NET 2032 = abc_11867_new_n738
* NET 2035 = abc_11867_new_n661
* NET 2036 = abc_11867_new_n666
* NET 2039 = abc_11867_new_n519
* NET 2041 = abc_11867_new_n527
* NET 2043 = abc_11867_new_n522
* NET 2126 = abc_11867_auto_rtlil_cc_2608_muxgate_11844
* NET 2127 = mos6502_alu_bi7
* NET 2132 = abc_11867_new_n1700
* NET 2133 = abc_11867_new_n1719
* NET 2135 = abc_11867_new_n1693
* NET 2136 = abc_11867_new_n1741
* NET 2138 = abc_11867_new_n1905
* NET 2141 = abc_11867_new_n1743
* NET 2143 = abc_11867_new_n1762
* NET 2144 = abc_11867_new_n1729
* NET 2152 = abc_11867_new_n1737
* NET 2154 = abc_11867_new_n1695
* NET 2155 = abc_11867_new_n1694
* NET 2156 = abc_11867_new_n1691
* NET 2159 = abc_11867_new_n1747
* NET 2166 = abc_11867_new_n1829
* NET 2167 = abc_11867_new_n1791
* NET 2168 = abc_11867_new_n1911
* NET 2170 = abc_11867_new_n1862
* NET 2172 = abc_11867_new_n885
* NET 2174 = abc_11867_new_n1816
* NET 2177 = abc_11867_new_n1817
* NET 2178 = abc_11867_new_n880
* NET 2179 = abc_11867_new_n884
* NET 2181 = abc_11867_new_n955
* NET 2182 = a[0]
* NET 2184 = subckt_1716_sff1_x4.sff_s
* NET 2185 = subckt_1716_sff1_x4.y
* NET 2188 = subckt_1716_sff1_x4.sff_m
* NET 2189 = abc_11867_auto_rtlil_cc_2608_muxgate_11780
* NET 2190 = subckt_1716_sff1_x4.u
* NET 2191 = subckt_1716_sff1_x4.ckr
* NET 2192 = subckt_1716_sff1_x4.nckr
* NET 2198 = abc_11867_new_n1039
* NET 2199 = abc_11867_new_n950
* NET 2202 = abc_11867_new_n952
* NET 2203 = abc_11867_new_n615
* NET 2205 = abc_11867_new_n1661
* NET 2206 = abc_11867_new_n1662
* NET 2207 = abc_11867_new_n1663
* NET 2210 = abc_11867_new_n579
* NET 2214 = abc_11867_new_n1689
* NET 2216 = abc_11867_new_n1439
* NET 2217 = abc_11867_new_n1438
* NET 2220 = abc_11867_new_n852
* NET 2227 = abc_11867_new_n614
* NET 2232 = abc_11867_new_n571
* NET 2233 = abc_11867_new_n566
* NET 2234 = abc_11867_new_n620
* NET 2235 = abc_11867_new_n616
* NET 2236 = abc_11867_new_n612
* NET 2238 = abc_11867_new_n834
* NET 2239 = abc_11867_new_n810
* NET 2240 = abc_11867_new_n572
* NET 2241 = abc_11867_new_n622
* NET 2242 = abc_11867_new_n817
* NET 2246 = abc_11867_new_n621
* NET 2247 = abc_11867_new_n607
* NET 2249 = abc_11867_new_n642
* NET 2251 = abc_11867_new_n650
* NET 2252 = abc_11867_new_n735
* NET 2254 = abc_11867_new_n736
* NET 2256 = abc_11867_new_n518
* NET 2258 = abc_11867_new_n516
* NET 2262 = mos6502_state[2]
* NET 2264 = subckt_1627_sff1_x4.sff_s
* NET 2265 = subckt_1627_sff1_x4.y
* NET 2267 = subckt_1627_sff1_x4.sff_m
* NET 2269 = subckt_1627_sff1_x4.u
* NET 2270 = subckt_1627_sff1_x4.ckr
* NET 2271 = subckt_1627_sff1_x4.nckr
* NET 2315 = abc_11867_new_n1026
* NET 2318 = abc_11867_new_n1722
* NET 2319 = abc_11867_auto_rtlil_cc_2608_muxgate_11846
* NET 2322 = subckt_1757_sff1_x4.sff_s
* NET 2324 = subckt_1757_sff1_x4.y
* NET 2325 = subckt_1757_sff1_x4.sff_m
* NET 2327 = subckt_1757_sff1_x4.ckr
* NET 2328 = subckt_1757_sff1_x4.u
* NET 2329 = subckt_1757_sff1_x4.nckr
* NET 2334 = abc_11867_new_n1756
* NET 2337 = abc_11867_new_n1761
* NET 2340 = abc_11867_new_n1757
* NET 2344 = abc_11867_new_n1765
* NET 2346 = abc_11867_new_n1759
* NET 2352 = abc_11867_new_n1796
* NET 2355 = abc_11867_new_n1830
* NET 2361 = abc_11867_new_n1792
* NET 2365 = abc_11867_new_n1831
* NET 2371 = abc_11867_new_n1832
* NET 2375 = abc_11867_new_n1649
* NET 2379 = abc_11867_new_n1822
* NET 2382 = abc_11867_new_n1855
* NET 2390 = a[8]
* NET 2393 = subckt_1724_sff1_x4.sff_s
* NET 2394 = subckt_1724_sff1_x4.y
* NET 2397 = subckt_1724_sff1_x4.sff_m
* NET 2398 = abc_11867_auto_rtlil_cc_2608_muxgate_11796
* NET 2399 = subckt_1724_sff1_x4.ckr
* NET 2400 = subckt_1724_sff1_x4.u
* NET 2401 = subckt_1724_sff1_x4.nckr
* NET 2402 = abc_11867_new_n1104
* NET 2407 = abc_11867_new_n961
* NET 2408 = abc_11867_new_n1046
* NET 2412 = abc_11867_new_n1041
* NET 2413 = abc_11867_new_n1044
* NET 2421 = abc_11867_new_n956
* NET 2424 = abc_11867_new_n960
* NET 2430 = abc_11867_new_n957
* NET 2437 = abc_11867_new_n1431
* NET 2439 = abc_11867_new_n1433
* NET 2441 = abc_11867_new_n1432
* NET 2448 = abc_11867_new_n724
* NET 2454 = abc_11867_new_n649
* NET 2462 = abc_11867_new_n556
* NET 2466 = abc_11867_new_n833
* NET 2467 = abc_11867_new_n835
* NET 2469 = abc_11867_new_n505
* NET 2471 = abc_11867_new_n824
* NET 2473 = abc_11867_new_n523
* NET 2477 = abc_11867_new_n800
* NET 2481 = abc_11867_new_n526
* NET 2484 = abc_11867_new_n651
* NET 2485 = abc_11867_new_n667
* NET 2490 = abc_11867_new_n485
* NET 2492 = mos6502_state[4]
* NET 2494 = subckt_1629_sff1_x4.sff_s
* NET 2495 = subckt_1629_sff1_x4.y
* NET 2496 = subckt_1629_sff1_x4.sff_m
* NET 2499 = subckt_1629_sff1_x4.ckr
* NET 2500 = subckt_1629_sff1_x4.u
* NET 2501 = subckt_1629_sff1_x4.nckr
* NET 2502 = do[0]
* NET 2589 = abc_11867_new_n1763
* NET 2591 = abc_11867_new_n1767
* NET 2594 = abc_11867_new_n1768
* NET 2595 = abc_11867_new_n1904
* NET 2596 = abc_11867_new_n1902
* NET 2599 = abc_11867_new_n1716
* NET 2601 = abc_11867_new_n1766
* NET 2602 = abc_11867_new_n1734
* NET 2605 = abc_11867_new_n1735
* NET 2608 = abc_11867_new_n1736
* NET 2610 = abc_11867_new_n1758
* NET 2612 = abc_11867_new_n1744
* NET 2614 = abc_11867_new_n1754
* NET 2616 = abc_11867_new_n1683
* NET 2619 = abc_11867_new_n1750
* NET 2621 = abc_11867_new_n1783
* NET 2630 = abc_11867_new_n1834
* NET 2631 = abc_11867_new_n1833
* NET 2635 = abc_11867_new_n1835
* NET 2636 = abc_11867_new_n1837
* NET 2638 = abc_11867_new_n1821
* NET 2642 = abc_11867_new_n1854
* NET 2648 = abc_11867_new_n1846
* NET 2652 = abc_11867_new_n1876
* NET 2659 = abc_11867_new_n1925
* NET 2661 = abc_11867_new_n1926
* NET 2663 = subckt_1750_sff1_x4.sff_s
* NET 2664 = subckt_1750_sff1_x4.y
* NET 2667 = subckt_1750_sff1_x4.sff_m
* NET 2668 = abc_11867_auto_rtlil_cc_2608_muxgate_11848
* NET 2669 = subckt_1750_sff1_x4.u
* NET 2670 = subckt_1750_sff1_x4.ckr
* NET 2671 = subckt_1750_sff1_x4.nckr
* NET 2672 = abc_11867_new_n1666
* NET 2677 = abc_11867_new_n972
* NET 2678 = abc_11867_new_n1042
* NET 2679 = abc_11867_new_n1659
* NET 2682 = abc_11867_new_n491
* NET 2687 = abc_11867_new_n382
* NET 2688 = abc_11867_new_n483
* NET 2690 = abc_11867_new_n381
* NET 2693 = abc_11867_new_n493
* NET 2695 = abc_11867_new_n767
* NET 2696 = abc_11867_new_n769
* NET 2698 = abc_11867_new_n515
* NET 2700 = abc_11867_new_n591
* NET 2702 = abc_11867_new_n590
* NET 2703 = abc_11867_new_n550
* NET 2705 = abc_11867_new_n836
* NET 2706 = abc_11867_new_n655
* NET 2707 = abc_11867_new_n506
* NET 2710 = abc_11867_new_n555
* NET 2712 = abc_11867_new_n573
* NET 2718 = abc_11867_new_n508
* NET 2719 = abc_11867_new_n653
* NET 2722 = abc_11867_new_n551
* NET 2723 = abc_11867_new_n549
* NET 2728 = subckt_1625_sff1_x4.sff_s
* NET 2729 = subckt_1625_sff1_x4.y
* NET 2732 = subckt_1625_sff1_x4.sff_m
* NET 2733 = subckt_1625_sff1_x4.u
* NET 2734 = subckt_1625_sff1_x4.ckr
* NET 2735 = subckt_1625_sff1_x4.nckr
* NET 2789 = abc_11867_new_n374
* NET 2794 = abc_11867_new_n1903
* NET 2796 = abc_11867_new_n1692
* NET 2798 = abc_11867_new_n1713
* NET 2803 = abc_11867_new_n1742
* NET 2805 = abc_11867_new_n1028
* NET 2806 = abc_11867_new_n1027
* NET 2809 = abc_11867_new_n1732
* NET 2813 = abc_11867_new_n1751
* NET 2816 = abc_11867_new_n1784
* NET 2822 = abc_11867_new_n1685
* NET 2827 = abc_11867_new_n1782
* NET 2830 = abc_11867_new_n1841
* NET 2833 = abc_11867_new_n1889
* NET 2836 = abc_11867_new_n1825
* NET 2840 = abc_11867_new_n1828
* NET 2843 = abc_11867_new_n1827
* NET 2845 = abc_11867_new_n1856
* NET 2847 = abc_11867_new_n1853
* NET 2853 = abc_11867_new_n1875
* NET 2860 = abc_11867_new_n1877
* NET 2863 = abc_11867_new_n1881
* NET 2866 = abc_11867_new_n1883
* NET 2868 = abc_11867_new_n1874
* NET 2873 = abc_11867_new_n1878
* NET 2875 = abc_11867_new_n1880
* NET 2877 = abc_11867_new_n1884
* NET 2883 = abc_11867_new_n1924
* NET 2886 = abc_11867_new_n1045
* NET 2887 = abc_11867_new_n1660
* NET 2888 = abc_11867_new_n1664
* NET 2889 = abc_11867_new_n967
* NET 2890 = abc_11867_new_n962
* NET 2894 = abc_11867_new_n499
* NET 2896 = abc_11867_new_n486
* NET 2898 = abc_11867_new_n575
* NET 2901 = abc_11867_new_n487
* NET 2904 = abc_11867_new_n770
* NET 2906 = abc_11867_new_n1428
* NET 2912 = abc_11867_new_n488
* NET 2913 = abc_11867_new_n477