* Coriolis Structural SPICE Driver
* Generated on Jul 10, 2024, 15:05
* Cell/Subckt "m65_cts_r".
* 
* INTERF wt
* INTERF vss
* INTERF vdd
* INTERF sync
* INTERF start
* INTERF rdy
* INTERF rd
* INTERF p_reset
* INTERF nmi
* INTERF m_clock
* INTERF irq
* INTERF debug[9]
* INTERF debug[8]
* INTERF debug[7]
* INTERF debug[6]
* INTERF debug[5]
* INTERF debug[4]
* INTERF debug[3]
* INTERF debug[2]
* INTERF debug[15]
* INTERF debug[14]
* INTERF debug[13]
* INTERF debug[12]
* INTERF debug[11]
* INTERF debug[10]
* INTERF debug[1]
* INTERF debug[0]
* INTERF datao[7]
* INTERF datao[6]
* INTERF datao[5]
* INTERF datao[4]
* INTERF datao[3]
* INTERF datao[2]
* INTERF datao[1]
* INTERF datao[0]
* INTERF data[7]
* INTERF data[6]
* INTERF data[5]
* INTERF data[4]
* INTERF data[3]
* INTERF data[2]
* INTERF data[1]
* INTERF data[0]
* INTERF adrs[9]
* INTERF adrs[8]
* INTERF adrs[7]
* INTERF adrs[6]
* INTERF adrs[5]
* INTERF adrs[4]
* INTERF adrs[3]
* INTERF adrs[2]
* INTERF adrs[15]
* INTERF adrs[14]
* INTERF adrs[13]
* INTERF adrs[12]
* INTERF adrs[11]
* INTERF adrs[10]
* INTERF adrs[1]
* INTERF adrs[0]

* Terminal models (aka standard cells) used througout all the hierarchy.
.include tie_x0.spi
.include rowend_x0.spi
.include a3_x2.spi
.include a2_x2.spi
.include oa22_x2.spi
.include nao22_x1.spi
.include na3_x1.spi
.include ao2o22_x2.spi
.include na2_x1.spi
.include ao22_x2.spi
.include nxr2_x1.spi
.include an12_x1.spi
.include no3_x1.spi
.include sff1_x4.spi
.include sff1r_x4.spi
.include oa2a2a23_x2.spi
.include oa2ao222_x2.spi
.include noa22_x1.spi
.include a4_x2.spi
.include na4_x1.spi
.include o4_x2.spi
.include noa2a2a23_x1.spi
.include no2_x1.spi
.include noa2ao222_x1.spi
.include inv_x1.spi
.include on12_x1.spi
.include o3_x2.spi
.include o2_x2.spi
.include mx2_x2.spi
.include no4_x1.spi
.include nao2o22_x1.spi
.include nmx2_x1.spi
.include xr2_x4.spi
.include buf_x8.spi
.include noa2a22_x1.spi

* Non-terminal models (part of the user's design hierarchy).

.subckt m65_cts_r 0 1 2 4 5 9 10 11 12 14 15 53 54 55 56 57 58 59 60 61 62 63 64 65 66 67 68 69 70 71 72 73 74 75 76 77 78 79 80 81 82 83 84 134 135 136 137 138 139 140 141 142 143 144 145 146 147 148 149
* NET     0 = wt
* NET     1 = vss
* NET     2 = vdd
* NET     3 = tc
* NET     4 = sync
* NET     5 = start
* NET     6 = reg_762[2]
* NET     7 = reg_762[1]
* NET     8 = reg_762[0]
* NET     9 = rdy
* NET    10 = rd
* NET    11 = p_reset
* NET    12 = nmi
* NET    13 = nm1
* NET    14 = m_clock
* NET    15 = irq
* NET    16 = int_req
* NET    17 = incr_thr
* NET    18 = incr_out[9]
* NET    19 = incr_out[8]
* NET    20 = incr_out[7]
* NET    21 = incr_out[6]
* NET    22 = incr_out[5]
* NET    23 = incr_out[4]
* NET    24 = incr_out[3]
* NET    25 = incr_out[2]
* NET    26 = incr_out[15]
* NET    27 = incr_out[14]
* NET    28 = incr_out[13]
* NET    29 = incr_out[12]
* NET    30 = incr_out[11]
* NET    31 = incr_out[10]
* NET    32 = incr_out[1]
* NET    33 = incr_out[0]
* NET    34 = incr_dox
* NET    35 = incr_ci
* NET    36 = ift_run
* NET    37 = fz
* NET    38 = fv
* NET    39 = fn
* NET    40 = fd
* NET    41 = fc
* NET    42 = ex_st[5]
* NET    43 = ex_st[4]
* NET    44 = ex_st[3]
* NET    45 = ex_st[2]
* NET    46 = ex_st[1]
* NET    47 = ex_st[0]
* NET    48 = ex
* NET    49 = do_res
* NET    50 = do_nmi
* NET    51 = do_irq
* NET    52 = do_brk
* NET    53 = debug[9]
* NET    54 = debug[8]
* NET    55 = debug[7]
* NET    56 = debug[6]
* NET    57 = debug[5]
* NET    58 = debug[4]
* NET    59 = debug[3]
* NET    60 = debug[2]
* NET    61 = debug[15]
* NET    62 = debug[14]
* NET    63 = debug[13]
* NET    64 = debug[12]
* NET    65 = debug[11]
* NET    66 = debug[10]
* NET    67 = debug[1]
* NET    68 = debug[0]
* NET    69 = datao[7]
* NET    70 = datao[6]
* NET    71 = datao[5]
* NET    72 = datao[4]
* NET    73 = datao[3]
* NET    74 = datao[2]
* NET    75 = datao[1]
* NET    76 = datao[0]
* NET    77 = data[7]
* NET    78 = data[6]
* NET    79 = data[5]
* NET    80 = data[4]
* NET    81 = data[3]
* NET    82 = data[2]
* NET    83 = data[1]
* NET    84 = data[0]
* NET    85 = alu_z
* NET    86 = alu_v
* NET    87 = alu_thr
* NET    88 = alu_sbc
* NET    89 = alu_s
* NET    90 = alu_ror
* NET    91 = alu_rol
* NET    92 = alu_out[6]
* NET    93 = alu_out[5]
* NET    94 = alu_out[4]
* NET    95 = alu_out[3]
* NET    96 = alu_out[2]
* NET    97 = alu_out[1]
* NET    98 = alu_out[0]
* NET    99 = alu_net_64
* NET   100 = alu_net_62
* NET   101 = alu_net_57
* NET   102 = alu_net_53
* NET   103 = alu_net_43
* NET   104 = alu_lsr
* NET   105 = alu_incc
* NET   106 = alu_inc
* NET   107 = alu_in2[5]
* NET   108 = alu_in2[4]
* NET   109 = alu_in2[3]
* NET   110 = alu_in2[2]
* NET   111 = alu_in2[1]
* NET   112 = alu_in2[0]
* NET   113 = alu_in1[6]
* NET   114 = alu_in1[5]
* NET   115 = alu_in1[4]
* NET   116 = alu_in1[3]
* NET   117 = alu_in1[2]
* NET   118 = alu_in1[1]
* NET   119 = alu_eor
* NET   120 = alu_do_or
* NET   121 = alu_do_and
* NET   122 = alu_df
* NET   123 = alu_dec2
* NET   124 = alu_dec
* NET   125 = alu_ci
* NET   126 = alu_c
* NET   127 = alu_bita
* NET   128 = alu_asl
* NET   129 = alu_adder_lo_net_1[3]
* NET   130 = alu_adder_lo_net_1[2]
* NET   131 = alu_adder_hi_net_1[3]
* NET   132 = alu_adder_hi_net_1[2]
* NET   133 = alu_adc
* NET   134 = adrs[9]
* NET   135 = adrs[8]
* NET   136 = adrs[7]
* NET   137 = adrs[6]
* NET   138 = adrs[5]
* NET   139 = adrs[4]
* NET   140 = adrs[3]
* NET   141 = adrs[2]
* NET   142 = adrs[15]
* NET   143 = adrs[14]
* NET   144 = adrs[13]
* NET   145 = adrs[12]
* NET   146 = adrs[11]
* NET   147 = adrs[10]
* NET   148 = adrs[1]
* NET   149 = adrs[0]
* NET   150 = abc_8306_new_n999
* NET   151 = abc_8306_new_n998
* NET   152 = abc_8306_new_n997
* NET   153 = abc_8306_new_n996
* NET   154 = abc_8306_new_n995
* NET   155 = abc_8306_new_n994
* NET   156 = abc_8306_new_n993
* NET   157 = abc_8306_new_n992
* NET   158 = abc_8306_new_n991
* NET   159 = abc_8306_new_n990
* NET   160 = abc_8306_new_n989
* NET   161 = abc_8306_new_n988
* NET   162 = abc_8306_new_n987
* NET   163 = abc_8306_new_n986
* NET   164 = abc_8306_new_n985
* NET   165 = abc_8306_new_n984
* NET   166 = abc_8306_new_n983
* NET   167 = abc_8306_new_n982
* NET   168 = abc_8306_new_n981
* NET   169 = abc_8306_new_n980
* NET   170 = abc_8306_new_n979
* NET   171 = abc_8306_new_n978
* NET   172 = abc_8306_new_n977
* NET   173 = abc_8306_new_n976
* NET   174 = abc_8306_new_n975
* NET   175 = abc_8306_new_n974
* NET   176 = abc_8306_new_n972
* NET   177 = abc_8306_new_n971
* NET   178 = abc_8306_new_n970
* NET   179 = abc_8306_new_n969
* NET   180 = abc_8306_new_n968
* NET   181 = abc_8306_new_n967
* NET   182 = abc_8306_new_n966
* NET   183 = abc_8306_new_n965
* NET   184 = abc_8306_new_n964
* NET   185 = abc_8306_new_n963
* NET   186 = abc_8306_new_n962
* NET   187 = abc_8306_new_n961
* NET   188 = abc_8306_new_n960
* NET   189 = abc_8306_new_n959
* NET   190 = abc_8306_new_n958
* NET   191 = abc_8306_new_n957
* NET   192 = abc_8306_new_n956
* NET   193 = abc_8306_new_n955
* NET   194 = abc_8306_new_n954
* NET   195 = abc_8306_new_n953
* NET   196 = abc_8306_new_n952
* NET   197 = abc_8306_new_n951
* NET   198 = abc_8306_new_n950
* NET   199 = abc_8306_new_n949
* NET   200 = abc_8306_new_n948
* NET   201 = abc_8306_new_n947
* NET   202 = abc_8306_new_n946
* NET   203 = abc_8306_new_n945
* NET   204 = abc_8306_new_n944
* NET   205 = abc_8306_new_n943
* NET   206 = abc_8306_new_n942
* NET   207 = abc_8306_new_n941
* NET   208 = abc_8306_new_n940
* NET   209 = abc_8306_new_n939
* NET   210 = abc_8306_new_n938
* NET   211 = abc_8306_new_n937
* NET   212 = abc_8306_new_n935
* NET   213 = abc_8306_new_n934
* NET   214 = abc_8306_new_n933
* NET   215 = abc_8306_new_n932
* NET   216 = abc_8306_new_n931
* NET   217 = abc_8306_new_n930
* NET   218 = abc_8306_new_n929
* NET   219 = abc_8306_new_n928
* NET   220 = abc_8306_new_n927
* NET   221 = abc_8306_new_n926
* NET   222 = abc_8306_new_n925
* NET   223 = abc_8306_new_n924
* NET   224 = abc_8306_new_n923
* NET   225 = abc_8306_new_n922
* NET   226 = abc_8306_new_n921
* NET   227 = abc_8306_new_n920
* NET   228 = abc_8306_new_n919
* NET   229 = abc_8306_new_n918
* NET   230 = abc_8306_new_n917
* NET   231 = abc_8306_new_n916
* NET   232 = abc_8306_new_n915
* NET   233 = abc_8306_new_n914
* NET   234 = abc_8306_new_n912
* NET   235 = abc_8306_new_n911
* NET   236 = abc_8306_new_n910
* NET   237 = abc_8306_new_n909
* NET   238 = abc_8306_new_n908
* NET   239 = abc_8306_new_n907
* NET   240 = abc_8306_new_n906
* NET   241 = abc_8306_new_n905
* NET   242 = abc_8306_new_n904
* NET   243 = abc_8306_new_n903
* NET   244 = abc_8306_new_n902
* NET   245 = abc_8306_new_n901
* NET   246 = abc_8306_new_n900
* NET   247 = abc_8306_new_n899
* NET   248 = abc_8306_new_n898
* NET   249 = abc_8306_new_n897
* NET   250 = abc_8306_new_n896
* NET   251 = abc_8306_new_n895
* NET   252 = abc_8306_new_n894
* NET   253 = abc_8306_new_n893
* NET   254 = abc_8306_new_n892
* NET   255 = abc_8306_new_n891
* NET   256 = abc_8306_new_n890
* NET   257 = abc_8306_new_n889
* NET   258 = abc_8306_new_n888
* NET   259 = abc_8306_new_n887
* NET   260 = abc_8306_new_n886
* NET   261 = abc_8306_new_n885
* NET   262 = abc_8306_new_n884
* NET   263 = abc_8306_new_n883
* NET   264 = abc_8306_new_n882
* NET   265 = abc_8306_new_n881
* NET   266 = abc_8306_new_n880
* NET   267 = abc_8306_new_n879
* NET   268 = abc_8306_new_n878
* NET   269 = abc_8306_new_n877
* NET   270 = abc_8306_new_n876
* NET   271 = abc_8306_new_n875
* NET   272 = abc_8306_new_n874
* NET   273 = abc_8306_new_n873
* NET   274 = abc_8306_new_n872
* NET   275 = abc_8306_new_n871
* NET   276 = abc_8306_new_n870
* NET   277 = abc_8306_new_n869
* NET   278 = abc_8306_new_n868
* NET   279 = abc_8306_new_n867
* NET   280 = abc_8306_new_n866
* NET   281 = abc_8306_new_n865
* NET   282 = abc_8306_new_n864
* NET   283 = abc_8306_new_n863
* NET   284 = abc_8306_new_n862
* NET   285 = abc_8306_new_n861
* NET   286 = abc_8306_new_n860
* NET   287 = abc_8306_new_n859
* NET   288 = abc_8306_new_n858
* NET   289 = abc_8306_new_n857
* NET   290 = abc_8306_new_n856
* NET   291 = abc_8306_new_n855
* NET   292 = abc_8306_new_n854
* NET   293 = abc_8306_new_n853
* NET   294 = abc_8306_new_n852
* NET   295 = abc_8306_new_n851
* NET   296 = abc_8306_new_n850
* NET   297 = abc_8306_new_n849
* NET   298 = abc_8306_new_n848
* NET   299 = abc_8306_new_n847
* NET   300 = abc_8306_new_n846
* NET   301 = abc_8306_new_n845
* NET   302 = abc_8306_new_n844
* NET   303 = abc_8306_new_n843
* NET   304 = abc_8306_new_n842
* NET   305 = abc_8306_new_n841
* NET   306 = abc_8306_new_n840
* NET   307 = abc_8306_new_n839
* NET   308 = abc_8306_new_n838
* NET   309 = abc_8306_new_n837
* NET   310 = abc_8306_new_n836
* NET   311 = abc_8306_new_n835
* NET   312 = abc_8306_new_n834
* NET   313 = abc_8306_new_n833
* NET   314 = abc_8306_new_n832
* NET   315 = abc_8306_new_n831
* NET   316 = abc_8306_new_n830
* NET   317 = abc_8306_new_n829
* NET   318 = abc_8306_new_n828
* NET   319 = abc_8306_new_n827
* NET   320 = abc_8306_new_n826
* NET   321 = abc_8306_new_n825
* NET   322 = abc_8306_new_n824
* NET   323 = abc_8306_new_n823
* NET   324 = abc_8306_new_n822
* NET   325 = abc_8306_new_n821
* NET   326 = abc_8306_new_n820
* NET   327 = abc_8306_new_n819
* NET   328 = abc_8306_new_n818
* NET   329 = abc_8306_new_n817
* NET   330 = abc_8306_new_n816
* NET   331 = abc_8306_new_n815
* NET   332 = abc_8306_new_n814
* NET   333 = abc_8306_new_n813
* NET   334 = abc_8306_new_n812
* NET   335 = abc_8306_new_n811
* NET   336 = abc_8306_new_n810
* NET   337 = abc_8306_new_n809
* NET   338 = abc_8306_new_n808
* NET   339 = abc_8306_new_n807
* NET   340 = abc_8306_new_n806
* NET   341 = abc_8306_new_n805
* NET   342 = abc_8306_new_n804
* NET   343 = abc_8306_new_n803
* NET   344 = abc_8306_new_n802
* NET   345 = abc_8306_new_n801
* NET   346 = abc_8306_new_n800
* NET   347 = abc_8306_new_n799
* NET   348 = abc_8306_new_n798
* NET   349 = abc_8306_new_n797
* NET   350 = abc_8306_new_n796
* NET   351 = abc_8306_new_n795
* NET   352 = abc_8306_new_n794
* NET   353 = abc_8306_new_n793
* NET   354 = abc_8306_new_n792
* NET   355 = abc_8306_new_n791
* NET   356 = abc_8306_new_n790
* NET   357 = abc_8306_new_n789
* NET   358 = abc_8306_new_n788
* NET   359 = abc_8306_new_n787
* NET   360 = abc_8306_new_n786
* NET   361 = abc_8306_new_n785
* NET   362 = abc_8306_new_n784
* NET   363 = abc_8306_new_n783
* NET   364 = abc_8306_new_n782
* NET   365 = abc_8306_new_n781
* NET   366 = abc_8306_new_n780
* NET   367 = abc_8306_new_n779
* NET   368 = abc_8306_new_n778
* NET   369 = abc_8306_new_n777
* NET   370 = abc_8306_new_n776
* NET   371 = abc_8306_new_n775
* NET   372 = abc_8306_new_n774
* NET   373 = abc_8306_new_n773
* NET   374 = abc_8306_new_n772
* NET   375 = abc_8306_new_n771
* NET   376 = abc_8306_new_n770
* NET   377 = abc_8306_new_n769
* NET   378 = abc_8306_new_n768
* NET   379 = abc_8306_new_n767
* NET   380 = abc_8306_new_n766
* NET   381 = abc_8306_new_n764
* NET   382 = abc_8306_new_n763
* NET   383 = abc_8306_new_n762
* NET   384 = abc_8306_new_n761
* NET   385 = abc_8306_new_n760
* NET   386 = abc_8306_new_n759
* NET   387 = abc_8306_new_n758
* NET   388 = abc_8306_new_n757
* NET   389 = abc_8306_new_n756
* NET   390 = abc_8306_new_n755
* NET   391 = abc_8306_new_n754
* NET   392 = abc_8306_new_n753
* NET   393 = abc_8306_new_n752
* NET   394 = abc_8306_new_n751
* NET   395 = abc_8306_new_n750
* NET   396 = abc_8306_new_n749
* NET   397 = abc_8306_new_n748
* NET   398 = abc_8306_new_n747
* NET   399 = abc_8306_new_n746
* NET   400 = abc_8306_new_n745
* NET   401 = abc_8306_new_n744
* NET   402 = abc_8306_new_n743
* NET   403 = abc_8306_new_n742
* NET   404 = abc_8306_new_n741
* NET   405 = abc_8306_new_n740
* NET   406 = abc_8306_new_n739
* NET   407 = abc_8306_new_n738
* NET   408 = abc_8306_new_n737
* NET   409 = abc_8306_new_n736
* NET   410 = abc_8306_new_n735
* NET   411 = abc_8306_new_n734
* NET   412 = abc_8306_new_n733
* NET   413 = abc_8306_new_n732
* NET   414 = abc_8306_new_n731
* NET   415 = abc_8306_new_n730
* NET   416 = abc_8306_new_n729
* NET   417 = abc_8306_new_n728
* NET   418 = abc_8306_new_n727
* NET   419 = abc_8306_new_n726
* NET   420 = abc_8306_new_n725
* NET   421 = abc_8306_new_n724
* NET   422 = abc_8306_new_n723
* NET   423 = abc_8306_new_n722
* NET   424 = abc_8306_new_n721
* NET   425 = abc_8306_new_n720
* NET   426 = abc_8306_new_n719
* NET   427 = abc_8306_new_n718
* NET   428 = abc_8306_new_n717
* NET   429 = abc_8306_new_n716
* NET   430 = abc_8306_new_n715
* NET   431 = abc_8306_new_n714
* NET   432 = abc_8306_new_n713
* NET   433 = abc_8306_new_n712
* NET   434 = abc_8306_new_n711
* NET   435 = abc_8306_new_n710
* NET   436 = abc_8306_new_n709
* NET   437 = abc_8306_new_n708
* NET   438 = abc_8306_new_n707
* NET   439 = abc_8306_new_n706
* NET   440 = abc_8306_new_n705
* NET   441 = abc_8306_new_n704
* NET   442 = abc_8306_new_n703
* NET   443 = abc_8306_new_n702
* NET   444 = abc_8306_new_n701
* NET   445 = abc_8306_new_n700
* NET   446 = abc_8306_new_n699
* NET   447 = abc_8306_new_n698
* NET   448 = abc_8306_new_n697
* NET   449 = abc_8306_new_n696
* NET   450 = abc_8306_new_n695
* NET   451 = abc_8306_new_n694
* NET   452 = abc_8306_new_n693
* NET   453 = abc_8306_new_n692
* NET   454 = abc_8306_new_n691
* NET   455 = abc_8306_new_n690
* NET   456 = abc_8306_new_n689
* NET   457 = abc_8306_new_n688
* NET   458 = abc_8306_new_n687
* NET   459 = abc_8306_new_n686
* NET   460 = abc_8306_new_n685
* NET   461 = abc_8306_new_n684
* NET   462 = abc_8306_new_n683
* NET   463 = abc_8306_new_n682
* NET   464 = abc_8306_new_n681
* NET   465 = abc_8306_new_n680
* NET   466 = abc_8306_new_n679
* NET   467 = abc_8306_new_n678
* NET   468 = abc_8306_new_n677
* NET   469 = abc_8306_new_n676
* NET   470 = abc_8306_new_n675
* NET   471 = abc_8306_new_n674
* NET   472 = abc_8306_new_n673
* NET   473 = abc_8306_new_n672
* NET   474 = abc_8306_new_n671
* NET   475 = abc_8306_new_n670
* NET   476 = abc_8306_new_n669
* NET   477 = abc_8306_new_n668
* NET   478 = abc_8306_new_n667
* NET   479 = abc_8306_new_n666
* NET   480 = abc_8306_new_n665
* NET   481 = abc_8306_new_n664
* NET   482 = abc_8306_new_n663
* NET   483 = abc_8306_new_n662
* NET   484 = abc_8306_new_n661
* NET   485 = abc_8306_new_n660
* NET   486 = abc_8306_new_n659
* NET   487 = abc_8306_new_n658
* NET   488 = abc_8306_new_n657
* NET   489 = abc_8306_new_n656
* NET   490 = abc_8306_new_n655
* NET   491 = abc_8306_new_n654
* NET   492 = abc_8306_new_n653
* NET   493 = abc_8306_new_n652
* NET   494 = abc_8306_new_n651
* NET   495 = abc_8306_new_n650
* NET   496 = abc_8306_new_n649
* NET   497 = abc_8306_new_n648
* NET   498 = abc_8306_new_n647
* NET   499 = abc_8306_new_n646
* NET   500 = abc_8306_new_n645
* NET   501 = abc_8306_new_n644
* NET   502 = abc_8306_new_n643
* NET   503 = abc_8306_new_n642
* NET   504 = abc_8306_new_n641
* NET   505 = abc_8306_new_n640
* NET   506 = abc_8306_new_n639
* NET   507 = abc_8306_new_n638
* NET   508 = abc_8306_new_n637
* NET   509 = abc_8306_new_n636
* NET   510 = abc_8306_new_n635
* NET   511 = abc_8306_new_n634
* NET   512 = abc_8306_new_n633
* NET   513 = abc_8306_new_n632
* NET   514 = abc_8306_new_n631
* NET   515 = abc_8306_new_n630
* NET   516 = abc_8306_new_n629
* NET   517 = abc_8306_new_n628
* NET   518 = abc_8306_new_n627
* NET   519 = abc_8306_new_n626
* NET   520 = abc_8306_new_n625
* NET   521 = abc_8306_new_n624
* NET   522 = abc_8306_new_n623
* NET   523 = abc_8306_new_n622
* NET   524 = abc_8306_new_n621
* NET   525 = abc_8306_new_n620
* NET   526 = abc_8306_new_n619
* NET   527 = abc_8306_new_n618
* NET   528 = abc_8306_new_n617
* NET   529 = abc_8306_new_n616
* NET   530 = abc_8306_new_n615
* NET   531 = abc_8306_new_n614
* NET   532 = abc_8306_new_n613
* NET   533 = abc_8306_new_n612
* NET   534 = abc_8306_new_n611
* NET   535 = abc_8306_new_n610
* NET   536 = abc_8306_new_n609
* NET   537 = abc_8306_new_n608
* NET   538 = abc_8306_new_n607
* NET   539 = abc_8306_new_n606
* NET   540 = abc_8306_new_n605
* NET   541 = abc_8306_new_n604
* NET   542 = abc_8306_new_n603
* NET   543 = abc_8306_new_n602
* NET   544 = abc_8306_new_n601
* NET   545 = abc_8306_new_n600
* NET   546 = abc_8306_new_n599
* NET   547 = abc_8306_new_n598
* NET   548 = abc_8306_new_n597
* NET   549 = abc_8306_new_n596
* NET   550 = abc_8306_new_n595
* NET   551 = abc_8306_new_n594
* NET   552 = abc_8306_new_n593
* NET   553 = abc_8306_new_n592
* NET   554 = abc_8306_new_n591
* NET   555 = abc_8306_new_n590
* NET   556 = abc_8306_new_n589
* NET   557 = abc_8306_new_n588
* NET   558 = abc_8306_new_n587
* NET   559 = abc_8306_new_n586
* NET   560 = abc_8306_new_n585
* NET   561 = abc_8306_new_n584
* NET   562 = abc_8306_new_n583
* NET   563 = abc_8306_new_n582
* NET   564 = abc_8306_new_n581
* NET   565 = abc_8306_new_n580
* NET   566 = abc_8306_new_n579
* NET   567 = abc_8306_new_n578
* NET   568 = abc_8306_new_n577
* NET   569 = abc_8306_new_n576
* NET   570 = abc_8306_new_n575
* NET   571 = abc_8306_new_n574
* NET   572 = abc_8306_new_n573
* NET   573 = abc_8306_new_n572
* NET   574 = abc_8306_new_n571
* NET   575 = abc_8306_new_n570
* NET   576 = abc_8306_new_n569
* NET   577 = abc_8306_new_n568
* NET   578 = abc_8306_new_n567
* NET   579 = abc_8306_new_n566
* NET   580 = abc_8306_new_n565
* NET   581 = abc_8306_new_n564
* NET   582 = abc_8306_new_n563
* NET   583 = abc_8306_new_n562
* NET   584 = abc_8306_new_n561
* NET   585 = abc_8306_new_n560
* NET   586 = abc_8306_new_n559
* NET   587 = abc_8306_new_n558
* NET   588 = abc_8306_new_n557
* NET   589 = abc_8306_new_n556
* NET   590 = abc_8306_new_n555
* NET   591 = abc_8306_new_n554
* NET   592 = abc_8306_new_n553
* NET   593 = abc_8306_new_n552
* NET   594 = abc_8306_new_n551
* NET   595 = abc_8306_new_n550
* NET   596 = abc_8306_new_n549
* NET   597 = abc_8306_new_n548
* NET   598 = abc_8306_new_n547
* NET   599 = abc_8306_new_n546
* NET   600 = abc_8306_new_n545
* NET   601 = abc_8306_new_n544
* NET   602 = abc_8306_new_n543
* NET   603 = abc_8306_new_n542
* NET   604 = abc_8306_new_n541
* NET   605 = abc_8306_new_n540
* NET   606 = abc_8306_new_n539
* NET   607 = abc_8306_new_n538
* NET   608 = abc_8306_new_n537
* NET   609 = abc_8306_new_n536
* NET   610 = abc_8306_new_n535
* NET   611 = abc_8306_new_n534
* NET   612 = abc_8306_new_n533
* NET   613 = abc_8306_new_n532
* NET   614 = abc_8306_new_n531
* NET   615 = abc_8306_new_n530
* NET   616 = abc_8306_new_n529
* NET   617 = abc_8306_new_n528
* NET   618 = abc_8306_new_n527
* NET   619 = abc_8306_new_n526
* NET   620 = abc_8306_new_n525
* NET   621 = abc_8306_new_n524
* NET   622 = abc_8306_new_n523
* NET   623 = abc_8306_new_n522
* NET   624 = abc_8306_new_n521
* NET   625 = abc_8306_new_n520
* NET   626 = abc_8306_new_n519
* NET   627 = abc_8306_new_n518
* NET   628 = abc_8306_new_n517
* NET   629 = abc_8306_new_n516
* NET   630 = abc_8306_new_n515
* NET   631 = abc_8306_new_n514
* NET   632 = abc_8306_new_n513
* NET   633 = abc_8306_new_n512
* NET   634 = abc_8306_new_n511
* NET   635 = abc_8306_new_n510
* NET   636 = abc_8306_new_n509
* NET   637 = abc_8306_new_n508
* NET   638 = abc_8306_new_n507
* NET   639 = abc_8306_new_n506
* NET   640 = abc_8306_new_n505
* NET   641 = abc_8306_new_n504
* NET   642 = abc_8306_new_n503
* NET   643 = abc_8306_new_n501
* NET   644 = abc_8306_new_n500
* NET   645 = abc_8306_new_n499
* NET   646 = abc_8306_new_n498
* NET   647 = abc_8306_new_n497
* NET   648 = abc_8306_new_n496
* NET   649 = abc_8306_new_n495
* NET   650 = abc_8306_new_n494
* NET   651 = abc_8306_new_n493
* NET   652 = abc_8306_new_n492
* NET   653 = abc_8306_new_n491
* NET   654 = abc_8306_new_n490
* NET   655 = abc_8306_new_n489
* NET   656 = abc_8306_new_n488
* NET   657 = abc_8306_new_n487
* NET   658 = abc_8306_new_n486
* NET   659 = abc_8306_new_n485
* NET   660 = abc_8306_new_n484
* NET   661 = abc_8306_new_n483
* NET   662 = abc_8306_new_n482
* NET   663 = abc_8306_new_n481
* NET   664 = abc_8306_new_n480
* NET   665 = abc_8306_new_n479
* NET   666 = abc_8306_new_n478
* NET   667 = abc_8306_new_n477
* NET   668 = abc_8306_new_n476
* NET   669 = abc_8306_new_n475
* NET   670 = abc_8306_new_n474
* NET   671 = abc_8306_new_n473
* NET   672 = abc_8306_new_n472
* NET   673 = abc_8306_new_n471
* NET   674 = abc_8306_new_n470
* NET   675 = abc_8306_new_n469
* NET   676 = abc_8306_new_n468
* NET   677 = abc_8306_new_n467
* NET   678 = abc_8306_new_n466
* NET   679 = abc_8306_new_n465
* NET   680 = abc_8306_new_n464
* NET   681 = abc_8306_new_n463
* NET   682 = abc_8306_new_n462
* NET   683 = abc_8306_new_n461
* NET   684 = abc_8306_new_n460
* NET   685 = abc_8306_new_n459
* NET   686 = abc_8306_new_n458
* NET   687 = abc_8306_new_n457
* NET   688 = abc_8306_new_n456
* NET   689 = abc_8306_new_n455
* NET   690 = abc_8306_new_n454
* NET   691 = abc_8306_new_n453
* NET   692 = abc_8306_new_n452
* NET   693 = abc_8306_new_n451
* NET   694 = abc_8306_new_n450
* NET   695 = abc_8306_new_n449
* NET   696 = abc_8306_new_n448
* NET   697 = abc_8306_new_n447
* NET   698 = abc_8306_new_n446
* NET   699 = abc_8306_new_n445
* NET   700 = abc_8306_new_n444
* NET   701 = abc_8306_new_n443
* NET   702 = abc_8306_new_n442
* NET   703 = abc_8306_new_n441
* NET   704 = abc_8306_new_n440
* NET   705 = abc_8306_new_n439
* NET   706 = abc_8306_new_n438
* NET   707 = abc_8306_new_n437
* NET   708 = abc_8306_new_n436
* NET   709 = abc_8306_new_n435
* NET   710 = abc_8306_new_n434
* NET   711 = abc_8306_new_n433
* NET   712 = abc_8306_new_n432
* NET   713 = abc_8306_new_n431
* NET   714 = abc_8306_new_n430
* NET   715 = abc_8306_new_n429
* NET   716 = abc_8306_new_n428
* NET   717 = abc_8306_new_n427
* NET   718 = abc_8306_new_n426
* NET   719 = abc_8306_new_n425
* NET   720 = abc_8306_new_n424
* NET   721 = abc_8306_new_n423
* NET   722 = abc_8306_new_n422
* NET   723 = abc_8306_new_n421
* NET   724 = abc_8306_new_n420
* NET   725 = abc_8306_new_n419
* NET   726 = abc_8306_new_n418
* NET   727 = abc_8306_new_n417
* NET   728 = abc_8306_new_n416
* NET   729 = abc_8306_new_n415
* NET   730 = abc_8306_new_n414
* NET   731 = abc_8306_new_n413
* NET   732 = abc_8306_new_n412
* NET   733 = abc_8306_new_n411
* NET   734 = abc_8306_new_n410
* NET   735 = abc_8306_new_n409
* NET   736 = abc_8306_new_n408
* NET   737 = abc_8306_new_n407
* NET   738 = abc_8306_new_n406
* NET   739 = abc_8306_new_n405
* NET   740 = abc_8306_new_n404
* NET   741 = abc_8306_new_n403
* NET   742 = abc_8306_new_n402
* NET   743 = abc_8306_new_n401
* NET   744 = abc_8306_new_n400
* NET   745 = abc_8306_new_n399
* NET   746 = abc_8306_new_n398
* NET   747 = abc_8306_new_n397
* NET   748 = abc_8306_new_n395
* NET   749 = abc_8306_new_n394
* NET   750 = abc_8306_new_n393
* NET   751 = abc_8306_new_n392
* NET   752 = abc_8306_new_n391
* NET   753 = abc_8306_new_n390
* NET   754 = abc_8306_new_n389
* NET   755 = abc_8306_new_n388
* NET   756 = abc_8306_new_n387
* NET   757 = abc_8306_new_n386
* NET   758 = abc_8306_new_n385
* NET   759 = abc_8306_new_n384
* NET   760 = abc_8306_new_n383
* NET   761 = abc_8306_new_n382
* NET   762 = abc_8306_new_n381
* NET   763 = abc_8306_new_n380
* NET   764 = abc_8306_new_n379
* NET   765 = abc_8306_new_n378
* NET   766 = abc_8306_new_n377
* NET   767 = abc_8306_new_n376
* NET   768 = abc_8306_new_n375
* NET   769 = abc_8306_new_n374
* NET   770 = abc_8306_new_n373
* NET   771 = abc_8306_new_n372
* NET   772 = abc_8306_new_n371
* NET   773 = abc_8306_new_n370
* NET   774 = abc_8306_new_n369
* NET   775 = abc_8306_new_n368
* NET   776 = abc_8306_new_n367
* NET   777 = abc_8306_new_n366
* NET   778 = abc_8306_new_n365
* NET   779 = abc_8306_new_n364
* NET   780 = abc_8306_new_n363
* NET   781 = abc_8306_new_n362
* NET   782 = abc_8306_new_n361
* NET   783 = abc_8306_new_n360
* NET   784 = abc_8306_new_n359
* NET   785 = abc_8306_new_n358
* NET   786 = abc_8306_new_n357
* NET   787 = abc_8306_new_n356
* NET   788 = abc_8306_new_n355
* NET   789 = abc_8306_new_n354
* NET   790 = abc_8306_new_n353
* NET   791 = abc_8306_new_n352
* NET   792 = abc_8306_new_n351
* NET   793 = abc_8306_new_n350
* NET   794 = abc_8306_new_n349
* NET   795 = abc_8306_new_n348
* NET   796 = abc_8306_new_n347
* NET   797 = abc_8306_new_n346
* NET   798 = abc_8306_new_n345
* NET   799 = abc_8306_new_n344
* NET   800 = abc_8306_new_n343
* NET   801 = abc_8306_new_n342
* NET   802 = abc_8306_new_n341
* NET   803 = abc_8306_new_n340
* NET   804 = abc_8306_new_n339
* NET   805 = abc_8306_new_n338
* NET   806 = abc_8306_new_n337
* NET   807 = abc_8306_new_n336
* NET   808 = abc_8306_new_n335
* NET   809 = abc_8306_new_n334
* NET   810 = abc_8306_new_n333
* NET   811 = abc_8306_new_n332
* NET   812 = abc_8306_new_n331
* NET   813 = abc_8306_new_n330
* NET   814 = abc_8306_new_n329
* NET   815 = abc_8306_new_n327
* NET   816 = abc_8306_new_n326
* NET   817 = abc_8306_new_n325
* NET   818 = abc_8306_new_n324
* NET   819 = abc_8306_new_n323
* NET   820 = abc_8306_new_n322
* NET   821 = abc_8306_new_n321
* NET   822 = abc_8306_new_n320
* NET   823 = abc_8306_new_n319
* NET   824 = abc_8306_new_n318
* NET   825 = abc_8306_new_n317
* NET   826 = abc_8306_new_n316
* NET   827 = abc_8306_new_n315
* NET   828 = abc_8306_new_n314
* NET   829 = abc_8306_new_n313
* NET   830 = abc_8306_new_n312
* NET   831 = abc_8306_new_n311
* NET   832 = abc_8306_new_n310
* NET   833 = abc_8306_new_n309
* NET   834 = abc_8306_new_n308
* NET   835 = abc_8306_new_n307
* NET   836 = abc_8306_new_n306
* NET   837 = abc_8306_new_n305
* NET   838 = abc_8306_new_n304
* NET   839 = abc_8306_new_n303
* NET   840 = abc_8306_new_n302
* NET   841 = abc_8306_new_n301
* NET   842 = abc_8306_new_n300
* NET   843 = abc_8306_new_n299
* NET   844 = abc_8306_new_n298
* NET   845 = abc_8306_new_n297
* NET   846 = abc_8306_new_n296
* NET   847 = abc_8306_new_n295
* NET   848 = abc_8306_new_n294
* NET   849 = abc_8306_new_n293
* NET   850 = abc_8306_new_n292
* NET   851 = abc_8306_new_n291
* NET   852 = abc_8306_new_n290
* NET   853 = abc_8306_new_n289
* NET   854 = abc_8306_new_n288
* NET   855 = abc_8306_new_n287
* NET   856 = abc_8306_new_n286
* NET   857 = abc_8306_new_n285
* NET   858 = abc_8306_new_n284
* NET   859 = abc_8306_new_n283
* NET   860 = abc_8306_new_n282
* NET   861 = abc_8306_new_n281
* NET   862 = abc_8306_new_n280
* NET   863 = abc_8306_new_n279
* NET   864 = abc_8306_new_n278
* NET   865 = abc_8306_new_n277
* NET   866 = abc_8306_new_n276
* NET   867 = abc_8306_new_n275
* NET   868 = abc_8306_new_n274
* NET   869 = abc_8306_new_n273
* NET   870 = abc_8306_new_n272
* NET   871 = abc_8306_new_n271
* NET   872 = abc_8306_new_n270
* NET   873 = abc_8306_new_n269
* NET   874 = abc_8306_new_n268
* NET   875 = abc_8306_new_n267
* NET   876 = abc_8306_new_n266
* NET   877 = abc_8306_new_n265
* NET   878 = abc_8306_new_n264
* NET   879 = abc_8306_new_n263
* NET   880 = abc_8306_new_n262
* NET   881 = abc_8306_new_n261
* NET   882 = abc_8306_new_n260
* NET   883 = abc_8306_new_n259
* NET   884 = abc_8306_new_n258
* NET   885 = abc_8306_new_n257
* NET   886 = abc_8306_new_n256
* NET   887 = abc_8306_new_n255
* NET   888 = abc_8306_new_n254
* NET   889 = abc_8306_new_n253
* NET   890 = abc_8306_new_n252
* NET   891 = abc_8306_new_n251
* NET   892 = abc_8306_new_n250
* NET   893 = abc_8306_new_n249
* NET   894 = abc_8306_new_n248
* NET   895 = abc_8306_new_n247
* NET   896 = abc_8306_new_n246
* NET   897 = abc_8306_new_n245
* NET   898 = abc_8306_new_n244
* NET   899 = abc_8306_new_n243
* NET   900 = abc_8306_new_n242
* NET   901 = abc_8306_new_n241
* NET   902 = abc_8306_new_n240
* NET   903 = abc_8306_new_n239
* NET   904 = abc_8306_new_n238
* NET   905 = abc_8306_new_n237
* NET   906 = abc_8306_new_n236
* NET   907 = abc_8306_new_n235
* NET   908 = abc_8306_new_n234
* NET   909 = abc_8306_new_n233