* Spice description of m65_cts_r_ext
* Spice driver version 492387240
* Date ( dd/mm/yyyy hh:mm:ss ): 10/07/2024 at 15:08:09

* INTERF adrs[0] adrs[1] adrs[2] adrs[3] adrs[4] adrs[5] adrs[6] adrs[7] 
* INTERF adrs[8] adrs[9] adrs[10] adrs[11] adrs[12] adrs[13] adrs[14] 
* INTERF adrs[15] data[0] data[1] data[2] data[3] data[4] data[5] data[6] 
* INTERF data[7] datao[0] datao[1] datao[2] datao[3] datao[4] datao[5] 
* INTERF datao[6] datao[7] debug[0] debug[1] debug[2] debug[3] debug[4] 
* INTERF debug[5] debug[6] debug[7] debug[8] debug[9] debug[10] debug[11] 
* INTERF debug[12] debug[13] debug[14] debug[15] irq m_clock nmi p_reset rd 
* INTERF rdy start sync vdd vss wt 


.subckt m65_cts_r_ext 5536 5523 6187 5969 5454 5746 5160 5833 4642 4975 5350 4959 5045 6539 7511 7495 5043 5055 5274 5216 4834 5137 4979 5138 5267 5812 7123 6762 6476 5991 5256 5540 7494 7493 7489 7481 7480 7475 7466 7464 7462 7454 7453 7452 7335 6965 6676 6628 4938 3717 6410 1412 1841 2754 1115 5623 7451 7514 6409 
* NET 11 = subckt_1662_sff1_x4.sff_s
* NET 13 = subckt_1662_sff1_x4.sff_m
* NET 17 = subckt_1662_sff1_x4.ckr
* NET 18 = subckt_1662_sff1_x4.nckr
* NET 33 = subckt_1574_sff1_x4.sff_s
* NET 36 = subckt_1574_sff1_x4.sff_m
* NET 38 = subckt_1574_sff1_x4.ckr
* NET 40 = subckt_1574_sff1_x4.nckr
* NET 41 = abc_8306_auto_rtlil_cc_2608_muxgate_8073
* NET 66 = subckt_1654_sff1_x4.sff_s
* NET 69 = subckt_1654_sff1_x4.sff_m
* NET 73 = subckt_1654_sff1_x4.ckr
* NET 74 = subckt_1654_sff1_x4.nckr
* NET 78 = abc_8306_new_n862
* NET 84 = subckt_1615_sff1_x4.sff_s
* NET 87 = subckt_1615_sff1_x4.sff_m
* NET 91 = subckt_1615_sff1_x4.ckr
* NET 92 = subckt_1615_sff1_x4.nckr
* NET 93 = subckt_1576_sff1_x4.sff_s
* NET 96 = subckt_1576_sff1_x4.sff_m
* NET 100 = subckt_1576_sff1_x4.ckr
* NET 101 = subckt_1576_sff1_x4.nckr
* NET 102 = subckt_1579_sff1_x4.sff_s
* NET 105 = subckt_1579_sff1_x4.sff_m
* NET 109 = subckt_1579_sff1_x4.ckr
* NET 110 = subckt_1579_sff1_x4.nckr
* NET 121 = subckt_1653_sff1_x4.sff_m
* NET 124 = subckt_1653_sff1_x4.ckr
* NET 125 = subckt_1653_sff1_x4.nckr
* NET 126 = abc_8306_new_n864
* NET 130 = abc_8306_auto_rtlil_cc_2608_muxgate_8077
* NET 132 = abc_8306_auto_rtlil_cc_2608_muxgate_8083
* NET 141 = subckt_1653_sff1_x4.sff_s
* NET 162 = abc_8306_new_n1295
* NET 181 = abc_8306_new_n825
* NET 186 = abc_8306_new_n767
* NET 190 = ex_st[2]
* NET 191 = ex_st_bit2_hfns_2
* NET 193 = abc_8306_new_n1299
* NET 195 = abc_8306_new_n444
* NET 225 = abc_8306_new_n776
* NET 230 = subckt_1578_sff1_x4.sff_s
* NET 233 = abc_8306_auto_rtlil_cc_2608_muxgate_8081
* NET 235 = subckt_1578_sff1_x4.sff_m
* NET 236 = subckt_1578_sff1_x4.ckr
* NET 238 = subckt_1578_sff1_x4.nckr
* NET 239 = abc_8306_new_n1305
* NET 242 = abc_8306_new_n443
* NET 262 = abc_8306_new_n1025
* NET 266 = abc_8306_new_n1033
* NET 272 = abc_8306_new_n802
* NET 275 = abc_8306_new_n851
* NET 276 = abc_8306_new_n863
* NET 280 = abc_8306_new_n871
* NET 281 = abc_8306_new_n768
* NET 283 = abc_8306_new_n784
* NET 286 = op[5]
* NET 290 = subckt_1573_sff1r_x4.sff_s
* NET 294 = subckt_1573_sff1r_x4.sff_m
* NET 295 = abc_8306_auto_rtlil_cc_2608_muxgate_8071
* NET 297 = subckt_1573_sff1r_x4.ckr
* NET 298 = subckt_1573_sff1r_x4.nckr
* NET 310 = spare_buffer_338.q
* NET 312 = abc_8306_new_n1104
* NET 316 = spare_buffer_334.q
* NET 320 = spare_buffer_322.q
* NET 325 = abc_8306_new_n773
* NET 326 = spare_buffer_318.q
* NET 329 = spare_buffer_258.q
* NET 331 = op_bit6_hfns_2
* NET 333 = spare_buffer_254.q
* NET 335 = spare_buffer_242.q
* NET 338 = abc_8306_new_n1297
* NET 340 = abc_8306_new_n337
* NET 343 = spare_buffer_238.q
* NET 358 = spare_buffer_337.q
* NET 360 = m_clock_root_tr_tr_tr_0
* NET 363 = abc_8306_new_n938
* NET 366 = spare_buffer_333.q
* NET 368 = m_clock_root_tr_tr_tl_0
* NET 370 = abc_8306_new_n875
* NET 372 = abc_8306_new_n876
* NET 374 = spare_buffer_321.q
* NET 376 = spare_buffer_320.q
* NET 378 = abc_8306_new_n850
* NET 382 = spare_buffer_317.q
* NET 384 = spare_buffer_316.q
* NET 387 = spare_buffer_257.q
* NET 390 = op_bit5_hfns_2
* NET 392 = spare_buffer_253.q
* NET 396 = spare_buffer_241.q
* NET 399 = abc_8306_new_n335
* NET 401 = spare_buffer_237.q
* NET 403 = m_clock_root_tl_tl_tl_0
* NET 405 = abc_8306_new_n445
* NET 434 = abc_8306_new_n510_hfns_2
* NET 437 = ex_st[1]
* NET 440 = subckt_1575_sff1_x4.sff_m
* NET 443 = subckt_1575_sff1_x4.ckr
* NET 444 = subckt_1575_sff1_x4.nckr
* NET 446 = abc_8306_new_n1303
* NET 455 = abc_8306_new_n916
* NET 461 = abc_8306_new_n873
* NET 462 = abc_8306_new_n877
* NET 464 = abc_8306_new_n775
* NET 468 = abc_8306_new_n783
* NET 469 = abc_8306_new_n781
* NET 470 = abc_8306_new_n777
* NET 478 = subckt_1575_sff1_x4.sff_s
* NET 480 = abc_8306_auto_rtlil_cc_2608_muxgate_8075
* NET 481 = abc_8306_new_n345
* NET 494 = abc_8306_new_n441
* NET 495 = abc_8306_new_n500
* NET 507 = abc_8306_new_n874
* NET 509 = abc_8306_new_n803
* NET 511 = abc_8306_new_n870
* NET 512 = abc_8306_new_n860
* NET 514 = abc_8306_new_n786
* NET 515 = abc_8306_new_n785
* NET 518 = abc_8306_new_n782
* NET 522 = subckt_1612_sff1_x4.sff_s
* NET 526 = subckt_1612_sff1_x4.sff_m
* NET 527 = abc_8306_auto_rtlil_cc_2608_muxgate_8149
* NET 529 = subckt_1612_sff1_x4.ckr
* NET 530 = subckt_1612_sff1_x4.nckr
* NET 533 = abc_8306_new_n436
* NET 536 = abc_8306_new_n438
* NET 554 = abc_8306_new_n937
* NET 558 = abc_8306_new_n940
* NET 563 = abc_8306_new_n827
* NET 564 = abc_8306_new_n867
* NET 566 = abc_8306_new_n866
* NET 568 = abc_8306_new_n859
* NET 571 = abc_8306_new_n861
* NET 576 = abc_8306_new_n778
* NET 579 = op[6]
* NET 580 = subckt_1616_sff1_x4.sff_s
* NET 584 = abc_8306_auto_rtlil_cc_2608_muxgate_8157
* NET 585 = subckt_1616_sff1_x4.sff_m
* NET 587 = subckt_1616_sff1_x4.ckr
* NET 589 = subckt_1616_sff1_x4.nckr
* NET 593 = subckt_1617_sff1_x4.sff_s
* NET 596 = subckt_1617_sff1_x4.sff_m
* NET 598 = m_clock_root_tl_tr_tl_0
* NET 599 = subckt_1617_sff1_x4.ckr
* NET 601 = subckt_1617_sff1_x4.nckr
* NET 602 = ex_st_bit1_hfns_2
* NET 609 = abc_8306_new_n440
* NET 640 = abc_8306_new_n878
* NET 641 = abc_8306_new_n915
* NET 642 = abc_8306_new_n939
* NET 647 = abc_8306_new_n774
* NET 653 = abc_8306_new_n687
* NET 654 = abc_8306_new_n689
* NET 656 = abc_8306_auto_rtlil_cc_2608_muxgate_8155
* NET 662 = subckt_1613_sff1_x4.sff_s
* NET 665 = subckt_1613_sff1_x4.sff_m
* NET 667 = subckt_1613_sff1_x4.ckr
* NET 669 = m_clock_root_tl_tl_tr_0
* NET 670 = subckt_1613_sff1_x4.nckr
* NET 685 = abc_8306_new_n985
* NET 691 = abc_8306_new_n889
* NET 695 = abc_8306_new_n879
* NET 696 = abc_8306_new_n886
* NET 698 = abc_8306_new_n868
* NET 699 = abc_8306_new_n882
* NET 706 = abc_8306_new_n708
* NET 709 = abc_8306_new_n706
* NET 721 = abc_8306_new_n433_hfns_2
* NET 728 = abc_8306_new_n414
* NET 729 = abc_8306_new_n696
* NET 731 = abc_8306_new_n406
* NET 735 = p_reset_hfns_2
* NET 762 = abc_8306_new_n980
* NET 765 = abc_8306_new_n884
* NET 767 = abc_8306_new_n885
* NET 768 = abc_8306_new_n883
* NET 771 = abc_8306_new_n856
* NET 775 = abc_8306_new_n686
* NET 776 = abc_8306_new_n688
* NET 777 = abc_8306_new_n705
* NET 778 = abc_8306_new_n690
* NET 780 = subckt_1614_sff1_x4.sff_s
* NET 784 = subckt_1614_sff1_x4.sff_m
* NET 785 = abc_8306_auto_rtlil_cc_2608_muxgate_8153
* NET 787 = subckt_1614_sff1_x4.ckr
* NET 788 = m_clock_root_tl_tr_tr_0
* NET 789 = subckt_1614_sff1_x4.nckr
* NET 790 = abc_8306_new_n697
* NET 793 = abc_8306_new_n433
* NET 819 = abc_8306_new_n881
* NET 823 = abc_8306_new_n865
* NET 824 = abc_8306_new_n858
* NET 827 = abc_8306_new_n869
* NET 828 = abc_8306_new_n787
* NET 829 = abc_8306_new_n789
* NET 831 = abc_8306_new_n685
* NET 832 = abc_8306_new_n701
* NET 833 = abc_8306_new_n704
* NET 841 = abc_8306_auto_rtlil_cc_2608_muxgate_8151
* NET 844 = abc_8306_new_n348
* NET 847 = abc_8306_new_n501
* NET 875 = abc_8306_new_n449
* NET 890 = abc_8306_new_n1084
* NET 893 = abc_8306_new_n890
* NET 894 = abc_8306_new_n917
* NET 899 = abc_8306_new_n872
* NET 900 = abc_8306_new_n828
* NET 902 = abc_8306_new_n826
* NET 903 = abc_8306_new_n880
* NET 905 = abc_8306_new_n797
* NET 906 = abc_8306_new_n857
* NET 907 = abc_8306_new_n779
* NET 908 = abc_8306_new_n780
* NET 909 = abc_8306_new_n707
* NET 910 = abc_8306_new_n709
* NET 915 = abc_8306_auto_rtlil_cc_2608_muxgate_8159
* NET 918 = abc_8306_new_n357
* NET 936 = abc_8306_new_n991
* NET 937 = abc_8306_new_n989
* NET 939 = abc_8306_new_n975
* NET 942 = abc_8306_new_n981
* NET 949 = abc_8306_new_n795
* NET 951 = abc_8306_new_n669
* NET 953 = abc_8306_new_n710
* NET 960 = abc_8306_new_n703
* NET 963 = tc
* NET 964 = subckt_1666_sff1_x4.sff_s
* NET 968 = abc_8306_auto_rtlil_cc_2608_muxgate_8289
* NET 969 = subckt_1666_sff1_x4.sff_m
* NET 971 = subckt_1666_sff1_x4.ckr
* NET 973 = subckt_1666_sff1_x4.nckr
* NET 975 = abc_8306_new_n698
* NET 978 = abc_8306_new_n430
* NET 979 = abc_8306_new_n432
* NET 1020 = abc_8306_new_n992
* NET 1021 = abc_8306_new_n914
* NET 1022 = abc_8306_new_n988
* NET 1023 = abc_8306_new_n984
* NET 1025 = abc_8306_new_n990
* NET 1029 = abc_8306_new_n887
* NET 1032 = abc_8306_new_n788
* NET 1034 = abc_8306_new_n888
* NET 1037 = abc_8306_new_n683
* NET 1040 = abc_8306_new_n693
* NET 1041 = abc_8306_new_n699
* NET 1044 = abc_8306_new_n609
* NET 1046 = abc_8306_new_n429
* NET 1047 = abc_8306_new_n416
* NET 1049 = abc_8306_new_n344
* NET 1051 = abc_8306_new_n405
* NET 1052 = abc_8306_new_n437
* NET 1068 = abc_8306_new_n974
* NET 1074 = abc_8306_new_n1118
* NET 1075 = abc_8306_new_n1124
* NET 1082 = abc_8306_new_n849
* NET 1085 = abc_8306_new_n672
* NET 1091 = abc_8306_new_n700
* NET 1092 = abc_8306_new_n692
* NET 1106 = abc_8306_new_n431
* NET 1109 = abc_8306_new_n408
* NET 1111 = abc_8306_new_n407
* NET 1112 = abc_8306_new_n415
* NET 1114 = abc_8306_new_n498
* NET 1115 = start
* NET 1144 = abc_8306_new_n1036
* NET 1145 = abc_8306_new_n796
* NET 1146 = abc_8306_new_n1123
* NET 1149 = abc_8306_new_n1121
* NET 1153 = abc_8306_new_n987
* NET 1155 = abc_8306_new_n673
* NET 1159 = abc_8306_new_n1180
* NET 1168 = op[3]
* NET 1180 = spare_buffer_330.q
* NET 1182 = abc_8306_new_n1117
* NET 1185 = spare_buffer_326.q
* NET 1187 = abc_8306_new_n848
* NET 1190 = spare_buffer_314.q
* NET 1196 = spare_buffer_310.q
* NET 1197 = abc_8306_new_n1244
* NET 1201 = spare_buffer_250.q
* NET 1203 = abc_8306_new_n605
* NET 1206 = spare_buffer_246.q
* NET 1210 = spare_buffer_234.q
* NET 1211 = abc_8306_new_n332
* NET 1215 = spare_buffer_230.q
* NET 1216 = abc_8306_new_n1040
* NET 1236 = abc_8306_new_n361
* NET 1253 = spare_buffer_329.q
* NET 1255 = spare_buffer_328.q
* NET 1257 = abc_8306_new_n1041
* NET 1258 = abc_8306_new_n1037
* NET 1261 = spare_buffer_325.q
* NET 1263 = spare_buffer_324.q
* NET 1264 = m_clock_root_tr_tr_0
* NET 1266 = abc_8306_new_n986
* NET 1267 = abc_8306_new_n1242
* NET 1270 = abc_8306_new_n794
* NET 1271 = abc_8306_new_n790
* NET 1273 = spare_buffer_313.q
* NET 1275 = spare_buffer_312.q
* NET 1279 = spare_buffer_309.q
* NET 1282 = spare_buffer_308.q
* NET 1284 = abc_8306_new_n1181
* NET 1287 = abc_8306_new_n900
* NET 1288 = spare_buffer_249.q
* NET 1290 = m_clock_root_tl_tr_br_0
* NET 1292 = abc_8306_new_n435
* NET 1294 = spare_buffer_245.q
* NET 1295 = m_clock_root_tl_tr_0
* NET 1296 = spare_buffer_244.q
* NET 1300 = spare_buffer_233.q
* NET 1302 = spare_buffer_232.q
* NET 1304 = ex_st[4]
* NET 1307 = spare_buffer_229.q
* NET 1309 = spare_buffer_228.q
* NET 1312 = abc_8306_new_n454
* NET 1332 = abc_8306_new_n1093
* NET 1333 = abc_8306_new_n1038
* NET 1334 = abc_8306_new_n1095
* NET 1336 = abc_8306_new_n1101
* NET 1337 = abc_8306_new_n1110
* NET 1339 = abc_8306_new_n1122
* NET 1340 = abc_8306_new_n1120
* NET 1341 = abc_8306_new_n711
* NET 1342 = abc_8306_new_n652
* NET 1355 = abc_8306_new_n750
* NET 1356 = abc_8306_new_n702
* NET 1363 = abc_8306_new_n412
* NET 1365 = abc_8306_new_n359
* NET 1366 = abc_8306_new_n355
* NET 1368 = abc_8306_new_n401
* NET 1369 = abc_8306_new_n598
* NET 1371 = abc_8306_new_n694
* NET 1372 = abc_8306_new_n460
* NET 1373 = abc_8306_new_n695
* NET 1376 = abc_8306_new_n428
* NET 1377 = abc_8306_new_n421
* NET 1382 = abc_8306_new_n497
* NET 1384 = abc_8306_new_n331
* NET 1385 = abc_8306_new_n452
* NET 1412 = p_reset
* NET 1413 = abc_8306_new_n1083
* NET 1419 = abc_8306_new_n1099
* NET 1420 = abc_8306_new_n1098
* NET 1422 = abc_8306_new_n1109
* NET 1426 = abc_8306_new_n1108
* NET 1427 = abc_8306_new_n1058
* NET 1430 = abc_8306_new_n667
* NET 1431 = abc_8306_new_n646
* NET 1435 = abc_8306_new_n645
* NET 1440 = abc_8306_new_n341
* NET 1441 = abc_8306_new_n358
* NET 1444 = abc_8306_new_n458
* NET 1445 = abc_8306_new_n417
* NET 1449 = op[2]
* NET 1464 = abc_8306_new_n1113
* NET 1465 = abc_8306_new_n1114
* NET 1466 = abc_8306_new_n651
* NET 1468 = abc_8306_new_n1111
* NET 1473 = abc_8306_new_n1106
* NET 1474 = abc_8306_new_n1107
* NET 1479 = abc_8306_new_n1102
* NET 1489 = abc_8306_new_n1182
* NET 1496 = abc_8306_new_n721
* NET 1500 = abc_8306_new_n400
* NET 1501 = abc_8306_new_n402
* NET 1508 = abc_8306_new_n484
* NET 1543 = abc_8306_new_n983
* NET 1547 = abc_8306_new_n1126
* NET 1548 = abc_8306_new_n1115
* NET 1550 = abc_8306_new_n1066
* NET 1551 = abc_8306_new_n1100
* NET 1552 = abc_8306_new_n1097
* NET 1556 = abc_8306_new_n1067
* NET 1558 = abc_8306_new_n1064
* NET 1560 = abc_8306_new_n1059
* NET 1565 = abc_8306_new_n1177
* NET 1567 = abc_8306_new_n1176
* NET 1568 = abc_8306_new_n606
* NET 1569 = abc_8306_new_n603
* NET 1570 = abc_8306_new_n600
* NET 1572 = abc_8306_new_n411
* NET 1574 = abc_8306_new_n360
* NET 1575 = abc_8306_new_n342
* NET 1577 = abc_8306_new_n350
* NET 1579 = abc_8306_new_n347
* NET 1581 = abc_8306_new_n424
* NET 1598 = abc_8306_new_n1112
* NET 1605 = abc_8306_new_n1119
* NET 1618 = abc_8306_new_n419
* NET 1619 = abc_8306_new_n404
* NET 1620 = abc_8306_new_n409
* NET 1624 = abc_8306_new_n333
* NET 1627 = abc_8306_new_n496
* NET 1628 = abc_8306_new_n418
* NET 1631 = abc_8306_new_n426
* NET 1632 = abc_8306_new_n499
* NET 1633 = abc_8306_new_n1094
* NET 1634 = abc_8306_new_n1039
* NET 1636 = abc_8306_new_n1096
* NET 1641 = abc_8306_new_n1150
* NET 1652 = abc_8306_new_n607
* NET 1653 = abc_8306_new_n623
* NET 1679 = abc_8306_new_n1032
* NET 1680 = abc_8306_new_n1035
* NET 1681 = abc_8306_new_n1034
* NET 1682 = abc_8306_new_n1105
* NET 1684 = abc_8306_new_n1092
* NET 1686 = abc_8306_new_n1103
* NET 1688 = abc_8306_new_n510_hfns_1
* NET 1694 = abc_8306_new_n1179
* NET 1695 = abc_8306_new_n1178
* NET 1699 = abc_8306_new_n1057
* NET 1700 = abc_8306_new_n653
* NET 1707 = abc_8306_new_n422
* NET 1709 = abc_8306_new_n255
* NET 1723 = abc_8306_new_n1204
* NET 1727 = abc_8306_new_n976
* NET 1728 = abc_8306_new_n982
* NET 1732 = abc_8306_new_n792
* NET 1733 = abc_8306_new_n1169
* NET 1736 = abc_8306_new_n1089
* NET 1740 = abc_8306_new_n1060
* NET 1741 = abc_8306_new_n1065
* NET 1744 = abc_8306_new_n511_hfns_2
* NET 1746 = abc_8306_new_n1794
* NET 1747 = abc_8306_new_n1795
* NET 1749 = abc_8306_new_n1792
* NET 1750 = abc_8306_new_n1793
* NET 1753 = abc_8306_new_n1203
* NET 1759 = abc_8306_new_n553
* NET 1764 = abc_8306_new_n349
* NET 1765 = abc_8306_new_n340
* NET 1767 = abc_8306_new_n648
* NET 1768 = abc_8306_new_n650
* NET 1771 = abc_8306_new_n451
* NET 1775 = abc_8306_new_n336
* NET 1809 = abc_8306_new_n793
* NET 1810 = abc_8306_new_n1116
* NET 1813 = abc_8306_new_n1091
* NET 1819 = abc_8306_new_n1175
* NET 1821 = abc_8306_new_n1174
* NET 1823 = abc_8306_new_n1056
* NET 1825 = abc_8306_new_n746
* NET 1826 = abc_8306_new_n525
* NET 1828 = abc_8306_new_n602
* NET 1830 = abc_8306_new_n610
* NET 1832 = abc_8306_new_n622
* NET 1833 = abc_8306_new_n423
* NET 1834 = abc_8306_new_n550
* NET 1835 = abc_8306_new_n647
* NET 1837 = abc_8306_new_n457
* NET 1838 = abc_8306_new_n448
* NET 1841 = rd
* NET 1851 = abc_8306_new_n684
* NET 1852 = abc_8306_new_n1031
* NET 1855 = abc_8306_new_n1127
* NET 1858 = abc_8306_new_n1043
* NET 1860 = abc_8306_new_n1147
* NET 1866 = abc_8306_new_n668
* NET 1867 = abc_8306_new_n1090
* NET 1869 = abc_8306_new_n1085
* NET 1871 = abc_8306_new_n744
* NET 1872 = abc_8306_new_n751
* NET 1876 = abc_8306_new_n1088
* NET 1880 = abc_8306_new_n551
* NET 1881 = abc_8306_new_n1205
* NET 1883 = abc_8306_new_n1063
* NET 1892 = abc_8306_new_n747
* NET 1893 = abc_8306_new_n636
* NET 1896 = abc_8306_new_n547
* NET 1898 = abc_8306_new_n1202
* NET 1899 = abc_8306_new_n351
* NET 1906 = ex_st[5]
* NET 1908 = abc_8306_new_n346
* NET 1911 = abc_8306_new_n338
* NET 1914 = abc_8306_new_n330
* NET 1915 = abc_8306_new_n329
* NET 1952 = abc_8306_new_n1042
* NET 1954 = abc_8306_new_n1125
* NET 1959 = abc_8306_new_n1082
* NET 1965 = abc_8306_new_n1154
* NET 1967 = abc_8306_new_n1173
* NET 1968 = abc_8306_new_n658
* NET 1970 = abc_8306_new_n627
* NET 1971 = abc_8306_new_n599
* NET 1973 = abc_8306_new_n555
* NET 1974 = abc_8306_new_n560
* NET 1976 = abc_8306_new_n356
* NET 1979 = abc_8306_new_n427
* NET 1981 = rdy_hfns_4
* NET 2002 = abc_8306_new_n1168
* NET 2007 = abc_8306_new_n1149
* NET 2008 = abc_8306_new_n1148
* NET 2009 = abc_8306_new_n1128
* NET 2016 = abc_8306_new_n766
* NET 2018 = abc_8306_new_n752
* NET 2023 = abc_8306_new_n1062
* NET 2027 = abc_8306_new_n1243
* NET 2029 = abc_8306_new_n1245
* NET 2033 = abc_8306_new_n453
* NET 2035 = abc_8306_new_n549
* NET 2037 = abc_8306_new_n554
* NET 2039 = abc_8306_new_n619
* NET 2040 = abc_8306_new_n620
* NET 2041 = abc_8306_new_n621
* NET 2042 = abc_8306_new_n637
* NET 2081 = abc_8306_new_n1167
* NET 2082 = abc_8306_new_n1170
* NET 2085 = abc_8306_new_n995
* NET 2088 = abc_8306_new_n714
* NET 2090 = abc_8306_new_n1157
* NET 2091 = abc_8306_new_n1155
* NET 2093 = abc_8306_new_n1156
* NET 2095 = abc_8306_new_n1080
* NET 2099 = abc_8306_new_n1045
* NET 2101 = abc_8306_new_n1054
* NET 2102 = abc_8306_new_n601
* NET 2103 = abc_8306_new_n248
* NET 2104 = abc_8306_new_n745
* NET 2109 = abc_8306_new_n635
* NET 2111 = op[0]
* NET 2113 = subckt_1610_sff1_x4.sff_s
* NET 2117 = subckt_1610_sff1_x4.sff_m
* NET 2118 = abc_8306_auto_rtlil_cc_2608_muxgate_8145
* NET 2119 = subckt_1610_sff1_x4.ckr
* NET 2121 = subckt_1610_sff1_x4.nckr
* NET 2133 = abc_8306_new_n671
* NET 2134 = abc_8306_new_n824
* NET 2137 = spare_buffer_306.q
* NET 2139 = abc_8306_new_n959
* NET 2140 = abc_8306_new_n996
* NET 2141 = abc_8306_new_n978
* NET 2145 = spare_buffer_302.q
* NET 2149 = abc_8306_new_n921
* NET 2151 = spare_buffer_290.q
* NET 2153 = abc_8306_new_n719
* NET 2154 = abc_8306_new_n718
* NET 2157 = abc_8306_new_n1153
* NET 2159 = abc_8306_new_n1087
* NET 2163 = spare_buffer_286.q
* NET 2164 = abc_8306_new_n715
* NET 2165 = abc_8306_new_n1044
* NET 2168 = abc_8306_new_n626
* NET 2169 = spare_buffer_226.q
* NET 2171 = abc_8306_new_n628
* NET 2174 = abc_8306_new_n459
* NET 2177 = spare_buffer_222.q
* NET 2179 = abc_8306_new_n413
* NET 2182 = abc_8306_new_n630
* NET 2183 = abc_8306_new_n638
* NET 2185 = abc_8306_new_n639
* NET 2187 = spare_buffer_210.q
* NET 2189 = abc_8306_new_n615
* NET 2192 = spare_buffer_206.q
* NET 2213 = spare_buffer_305.q
* NET 2215 = spare_buffer_304.q
* NET 2217 = abc_8306_new_n997
* NET 2220 = abc_8306_new_n722
* NET 2221 = abc_8306_new_n998
* NET 2222 = abc_8306_new_n979
* NET 2224 = spare_buffer_301.q
* NET 2226 = spare_buffer_300.q
* NET 2228 = abc_8306_new_n947
* NET 2229 = abc_8306_new_n894
* NET 2232 = spare_buffer_289.q
* NET 2234 = spare_buffer_288.q
* NET 2237 = spare_buffer_285.q
* NET 2239 = spare_buffer_284.q
* NET 2241 = abc_8306_new_n1055
* NET 2245 = abc_8306_new_n320
* NET 2246 = spare_buffer_225.q
* NET 2252 = spare_buffer_221.q
* NET 2255 = abc_8306_new_n246
* NET 2256 = abc_8306_new_n456
* NET 2257 = abc_8306_new_n545
* NET 2260 = spare_buffer_209.q
* NET 2261 = spare_buffer_208.q
* NET 2263 = abc_8306_new_n569
* NET 2265 = spare_buffer_205.q
* NET 2286 = abc_8306_new_n821
* NET 2287 = abc_8306_new_n822
* NET 2288 = abc_8306_new_n748
* NET 2290 = abc_8306_new_n1027
* NET 2292 = abc_8306_new_n717
* NET 2300 = abc_8306_new_n681
* NET 2304 = abc_8306_new_n1068
* NET 2307 = subckt_1665_sff1_x4.sff_s
* NET 2309 = subckt_1665_sff1_x4.sff_m
* NET 2312 = subckt_1665_sff1_x4.ckr
* NET 2314 = subckt_1665_sff1_x4.nckr
* NET 2315 = abc_8306_new_n530
* NET 2318 = abc_8306_new_n676
* NET 2319 = abc_8306_new_n675
* NET 2322 = abc_8306_new_n425
* NET 2325 = abc_8306_new_n1721
* NET 2328 = abc_8306_new_n633
* NET 2332 = abc_8306_new_n1197
* NET 2333 = abc_8306_new_n1196
* NET 2337 = abc_8306_new_n612
* NET 2338 = abc_8306_new_n557
* NET 2366 = abc_8306_new_n1013
* NET 2371 = abc_8306_new_n855
* NET 2381 = abc_8306_new_n1069
* NET 2383 = abc_8306_new_n1078
* NET 2390 = abc_8306_new_n455
* NET 2392 = abc_8306_new_n353
* NET 2395 = abc_8306_new_n649
* NET 2398 = abc_8306_new_n556
* NET 2412 = abc_8306_new_n818
* NET 2416 = abc_8306_new_n1012
* NET 2418 = abc_8306_new_n960
* NET 2424 = abc_8306_new_n1081
* NET 2425 = abc_8306_new_n898
* NET 2429 = abc_8306_new_n902
* NET 2431 = abc_8306_new_n901
* NET 2433 = abc_8306_new_n682
* NET 2434 = abc_8306_new_n716
* NET 2435 = abc_8306_new_n595
* NET 2442 = abc_8306_new_n321
* NET 2444 = subckt_1611_sff1_x4.sff_s
* NET 2446 = subckt_1611_sff1_x4.sff_m
* NET 2450 = subckt_1611_sff1_x4.ckr
* NET 2451 = subckt_1611_sff1_x4.nckr
* NET 2452 = abc_8306_new_n657
* NET 2454 = abc_8306_new_n487
* NET 2456 = abc_8306_new_n616
* NET 2457 = abc_8306_new_n1742
* NET 2463 = abc_8306_new_n1199
* NET 2465 = abc_8306_new_n1198
* NET 2467 = abc_8306_new_n614
* NET 2502 = abc_8306_new_n749
* NET 2504 = abc_8306_new_n743
* NET 2505 = abc_8306_new_n823
* NET 2507 = abc_8306_new_n1009
* NET 2508 = abc_8306_new_n999
* NET 2510 = abc_8306_new_n772
* NET 2514 = abc_8306_new_n1079
* NET 2517 = abc_8306_new_n315
* NET 2520 = abc_8306_new_n1000
* NET 2521 = abc_8306_new_n948
* NET 2524 = abc_8306_new_n957
* NET 2526 = subckt_1672_sff1r_x4.sff_s
* NET 2529 = subckt_1672_sff1r_x4.sff_m
* NET 2531 = subckt_1672_sff1r_x4.ckr
* NET 2533 = m_clock_root_tl_br_tl_0
* NET 2534 = subckt_1672_sff1r_x4.nckr
* NET 2536 = abc_8306_new_n617
* NET 2537 = abc_8306_new_n489
* NET 2540 = abc_8306_new_n611
* NET 2541 = abc_8306_new_n410
* NET 2542 = abc_8306_new_n420
* NET 2543 = abc_8306_new_n403
* NET 2546 = subckt_1577_sff1_x4.sff_s
* NET 2550 = subckt_1577_sff1_x4.sff_m
* NET 2551 = subckt_1577_sff1_x4.ckr
* NET 2553 = m_clock_root_tl_bl_tl_0
* NET 2554 = subckt_1577_sff1_x4.nckr
* NET 2576 = abc_8306_new_n1030
* NET 2583 = abc_8306_new_n1029
* NET 2587 = abc_8306_new_n1271
* NET 2589 = abc_8306_new_n522
* NET 2590 = abc_8306_new_n316
* NET 2591 = abc_8306_new_n398
* NET 2592 = abc_8306_new_n665
* NET 2596 = ry[7]
* NET 2597 = abc_8306_auto_rtlil_cc_2608_muxgate_8287
* NET 2602 = op[1]
* NET 2603 = abc_8306_auto_rtlil_cc_2608_muxgate_8147
* NET 2608 = abc_8306_new_n1752
* NET 2612 = abc_8306_new_n1753
* NET 2613 = abc_8306_new_n559
* NET 2618 = abc_8306_new_n495
* NET 2620 = abc_8306_new_n488
* NET 2645 = abc_8306_new_n820
* NET 2647 = abc_8306_new_n1134
* NET 2648 = abc_8306_new_n1135
* NET 2652 = abc_8306_new_n1132
* NET 2653 = abc_8306_new_n1131
* NET 2655 = abc_8306_new_n1133
* NET 2657 = abc_8306_new_n724
* NET 2658 = abc_8306_new_n741
* NET 2659 = abc_8306_new_n895
* NET 2661 = abc_8306_new_n739
* NET 2662 = abc_8306_new_n805
* NET 2664 = rx[7]
* NET 2668 = subckt_1657_sff1_x4.sff_s
* NET 2669 = abc_8306_auto_rtlil_cc_2608_muxgate_8271
* NET 2670 = subckt_1657_sff1_x4.sff_m
* NET 2672 = m_clock_root_tl_br_tr_0
* NET 2674 = subckt_1657_sff1_x4.ckr
* NET 2675 = subckt_1657_sff1_x4.nckr
* NET 2676 = abc_8306_new_n529
* NET 2679 = abc_8306_new_n613
* NET 2681 = abc_8306_new_n490
* NET 2684 = abc_8306_new_n558
* NET 2685 = abc_8306_new_n632
* NET 2686 = op_bit5_hfns_1
* NET 2687 = abc_8306_new_n542
* NET 2688 = abc_8306_new_n1785
* NET 2696 = abc_8306_new_n801
* NET 2705 = abc_8306_new_n740
* NET 2707 = abc_8306_new_n893
* NET 2708 = abc_8306_new_n771
* NET 2712 = m_clock_root_tr_0
* NET 2718 = abc_8306_new_n666
* NET 2723 = abc_8306_new_n1053
* NET 2727 = abc_8306_new_n526
* NET 2730 = abc_8306_new_n1722
* NET 2733 = abc_8306_new_n664
* NET 2738 = abc_8306_new_n631
* NET 2739 = abc_8306_new_n662
* NET 2741 = abc_8306_new_n663
* NET 2743 = abc_8306_new_n528
* NET 2746 = m_clock_root_tl_0
* NET 2748 = abc_8306_new_n661
* NET 2751 = abc_8306_new_n1289
* NET 2752 = abc_8306_auto_rtlil_cc_2608_muxgate_8079
* NET 2754 = rdy
* NET 2784 = abc_8306_new_n946
* NET 2785 = abc_8306_new_n817
* NET 2789 = abc_8306_new_n899
* NET 2792 = abc_8306_new_n844
* NET 2794 = abc_8306_new_n742
* NET 2795 = abc_8306_new_n738
* NET 2798 = abc_8306_new_n723
* NET 2800 = abc_8306_new_n643
* NET 2801 = abc_8306_new_n594
* NET 2810 = abc_8306_new_n1077
* NET 2811 = abc_8306_new_n541
* NET 2813 = abc_8306_new_n634
* NET 2814 = abc_8306_new_n544
* NET 2816 = abc_8306_new_n564
* NET 2817 = abc_8306_new_n1256
* NET 2819 = abc_8306_new_n1291
* NET 2820 = abc_8306_new_n1287
* NET 2823 = abc_8306_new_n467
* NET 2825 = abc_8306_new_n1786
* NET 2836 = abc_8306_new_n804
* NET 2837 = abc_8306_new_n815
* NET 2841 = abc_8306_new_n816
* NET 2842 = abc_8306_new_n846
* NET 2844 = abc_8306_new_n897
* NET 2846 = abc_8306_new_n735
* NET 2847 = abc_8306_new_n737
* NET 2853 = abc_8306_new_n644
* NET 2854 = abc_8306_new_n679
* NET 2856 = abc_8306_new_n734
* NET 2860 = abc_8306_new_n1046
* NET 2861 = abc_8306_new_n532
* NET 2862 = abc_8306_new_n593
* NET 2865 = abc_8306_new_n1796
* NET 2866 = abc_8306_auto_rtlil_cc_2608_muxgate_8305
* NET 2869 = abc_8306_new_n1797
* NET 2872 = abc_8306_new_n258
* NET 2875 = abc_8306_new_n1267
* NET 2880 = abc_8306_new_n343
* NET 2881 = abc_8306_new_n247
* NET 2884 = abc_8306_new_n1292
* NET 2887 = abc_8306_new_n1293
* NET 2889 = abc_8306_new_n1301
* NET 2922 = abc_8306_new_n800
* NET 2925 = abc_8306_new_n678
* NET 2926 = abc_8306_new_n656
* NET 2929 = abc_8306_new_n515
* NET 2931 = abc_8306_new_n769
* NET 2932 = abc_8306_new_n1272
* NET 2934 = ry[6]
* NET 2936 = subckt_1664_sff1_x4.sff_s
* NET 2938 = abc_8306_auto_rtlil_cc_2608_muxgate_8285
* NET 2940 = subckt_1664_sff1_x4.sff_m
* NET 2943 = subckt_1664_sff1_x4.ckr
* NET 2944 = subckt_1664_sff1_x4.nckr
* NET 2945 = abc_8306_new_n531
* NET 2946 = abc_8306_new_n524
* NET 2948 = abc_8306_new_n725
* NET 2949 = abc_8306_new_n233
* NET 2951 = abc_8306_new_n1277
* NET 2953 = abc_8306_new_n1791
* NET 2954 = abc_8306_new_n791
* NET 2956 = abc_8306_new_n527
* NET 2958 = abc_8306_new_n674
* NET 2960 = abc_8306_new_n1206
* NET 2963 = subckt_1671_sff1r_x4.sff_s
* NET 2965 = subckt_1671_sff1r_x4.sff_m
* NET 2969 = subckt_1671_sff1r_x4.nckr
* NET 2970 = subckt_1671_sff1r_x4.ckr
* NET 2971 = abc_8306_new_n1787
* NET 2972 = abc_8306_new_n1789
* NET 2973 = abc_8306_auto_rtlil_cc_2608_muxgate_8303
* NET 2986 = abc_8306_new_n1008
* NET 2988 = abc_8306_new_n1193
* NET 2991 = abc_8306_new_n720
* NET 2995 = abc_8306_new_n552
* NET 2999 = abc_8306_new_n1273
* NET 3000 = abc_8306_new_n1086
* NET 3001 = abc_8306_new_n314
* NET 3004 = abc_8306_new_n1061
* NET 3005 = abc_8306_new_n319
* NET 3009 = abc_8306_new_n830
* NET 3012 = abc_8306_new_n234
* NET 3013 = abc_8306_new_n1070
* NET 3023 = abc_8306_new_n486
* NET 3029 = abc_8306_new_n1195
* NET 3030 = abc_8306_new_n1194
* NET 3033 = abc_8306_new_n1200
* NET 3037 = abc_8306_new_n1209
* NET 3066 = abc_8306_new_n944
* NET 3067 = abc_8306_new_n943
* NET 3069 = abc_8306_new_n962
* NET 3070 = abc_8306_new_n963
* NET 3071 = abc_8306_new_n961
* NET 3074 = abc_8306_new_n945
* NET 3077 = abc_8306_new_n839
* NET 3079 = abc_8306_new_n843
* NET 3080 = abc_8306_new_n854
* NET 3081 = abc_8306_new_n511_hfns_1
* NET 3082 = abc_8306_new_n852
* NET 3083 = abc_8306_new_n903
* NET 3084 = abc_8306_new_n896
* NET 3086 = rx[6]
* NET 3088 = subckt_1656_sff1_x4.sff_s
* NET 3091 = subckt_1656_sff1_x4.sff_m
* NET 3092 = abc_8306_auto_rtlil_cc_2608_muxgate_8269
* NET 3095 = subckt_1656_sff1_x4.ckr
* NET 3096 = subckt_1656_sff1_x4.nckr
* NET 3097 = abc_8306_new_n1001
* NET 3100 = subckt_1648_sff1r_x4.sff_s
* NET 3104 = subckt_1648_sff1r_x4.sff_m
* NET 3105 = subckt_1648_sff1r_x4.ckr
* NET 3107 = subckt_1648_sff1r_x4.nckr
* NET 3108 = abc_8306_new_n1799
* NET 3109 = abc_8306_new_n1798
* NET 3116 = abc_8306_new_n1774
* NET 3119 = abc_8306_new_n1208
* NET 3120 = abc_8306_new_n1279
* NET 3128 = abc_8306_new_n814
* NET 3129 = abc_8306_new_n301
* NET 3131 = abc_8306_new_n819
* NET 3132 = spare_buffer_298.q
* NET 3134 = abc_8306_new_n798
* NET 3135 = abc_8306_new_n511_hfns_0
* NET 3137 = abc_8306_new_n840
* NET 3138 = abc_8306_new_n847
* NET 3140 = spare_buffer_294.q
* NET 3142 = abc_8306_new_n922
* NET 3143 = abc_8306_new_n920
* NET 3145 = abc_8306_new_n642
* NET 3147 = spare_buffer_282.q
* NET 3149 = abc_8306_new_n293
* NET 3155 = spare_buffer_278.q
* NET 3156 = abc_8306_new_n813
* NET 3159 = abc_8306_new_n1172
* NET 3160 = abc_8306_new_n1183
* NET 3163 = spare_buffer_218.q
* NET 3167 = abc_8306_new_n510
* NET 3168 = spare_buffer_214.q
* NET 3170 = abc_8306_new_n579
* NET 3176 = spare_buffer_202.q
* NET 3178 = abc_8306_new_n1773
* NET 3179 = abc_8306_new_n1772
* NET 3181 = abc_8306_new_n1777
* NET 3183 = abc_8306_new_n1780
* NET 3184 = abc_8306_new_n1778
* NET 3187 = spare_buffer_198.q
* NET 3204 = spare_buffer_297.q
* NET 3208 = spare_buffer_293.q
* NET 3210 = m_clock_root_tr_br_0
* NET 3212 = abc_8306_new_n625
* NET 3213 = abc_8306_new_n736
* NET 3214 = abc_8306_new_n640
* NET 3216 = abc_8306_new_n1274
* NET 3218 = spare_buffer_281.q
* NET 3220 = spare_buffer_280.q
* NET 3226 = abc_8306_new_n238
* NET 3227 = spare_buffer_277.q
* NET 3232 = abc_8306_new_n733
* NET 3233 = abc_8306_new_n592
* NET 3235 = spare_buffer_217.q
* NET 3238 = abc_8306_new_n949
* NET 3239 = abc_8306_new_n956
* NET 3240 = abc_8306_new_n511
* NET 3244 = spare_buffer_213.q
* NET 3246 = m_clock_root_tl_br_0
* NET 3248 = abc_8306_new_n1286
* NET 3253 = spare_buffer_201.q
* NET 3256 = abc_8306_new_n1213
* NET 3259 = abc_8306_new_n1788
* NET 3261 = spare_buffer_197.q
* NET 3263 = m_clock_root_tl_bl_bl_0
* NET 3264 = m_clock_root_tl_bl_0
* NET 3266 = abc_8306_new_n472
* NET 3287 = subckt_1660_sff1_x4.sff_s
* NET 3290 = subckt_1660_sff1_x4.sff_m
* NET 3294 = subckt_1660_sff1_x4.ckr