* NGSPICE file created from picorv32.ext - technology: sky130A
* libray.spice modifies to handle decap_12 cell
* MML April 12, 2024
**

.include /users/cao/mariem/coriolis-2.x/src/alliance-check-toolkit/benchs/picorv32/skyWater130/timing/sta/skylibm/library.spice

.subckt picorv32_m VGND VPWR clk eoi[0] eoi[15] eoi[1] eoi[2] eoi[3] eoi[4] eoi[5] irq[0]
+ irq[10] irq[11] irq[12] irq[13] irq[14] irq[15] irq[16] irq[17] irq[18] irq[19]
+ irq[1] irq[20] irq[21] irq[22] irq[23] irq[24] irq[25] irq[26] irq[27] irq[28] irq[29]
+ irq[2] irq[30] irq[31] irq[3] irq[4] irq[5] irq[6] irq[7] irq[8] irq[9] mem_addr[10]
+ mem_addr[11] mem_addr[12] mem_addr[13] mem_addr[14] mem_addr[15] mem_addr[16] mem_addr[17]
+ mem_addr[18] mem_addr[19] mem_addr[20] mem_addr[21] mem_addr[22] mem_addr[23] mem_addr[24]
+ mem_addr[25] mem_addr[26] mem_addr[27] mem_addr[28] mem_addr[29] mem_addr[2] mem_addr[30]
+ mem_addr[31] mem_addr[3] mem_addr[4] mem_addr[5] mem_addr[6] mem_addr[7] mem_addr[8]
+ mem_addr[9] mem_instr mem_la_addr[0] mem_la_addr[10] mem_la_addr[11] mem_la_addr[12]
+ mem_la_addr[13] mem_la_addr[14] mem_la_addr[15] mem_la_addr[16] mem_la_addr[17]
+ mem_la_addr[18] mem_la_addr[19] mem_la_addr[1] mem_la_addr[20] mem_la_addr[21] mem_la_addr[22]
+ mem_la_addr[23] mem_la_addr[24] mem_la_addr[25] mem_la_addr[26] mem_la_addr[27]
+ mem_la_addr[28] mem_la_addr[29] mem_la_addr[2] mem_la_addr[30] mem_la_addr[31] mem_la_addr[3]
+ mem_la_addr[4] mem_la_addr[5] mem_la_addr[6] mem_la_addr[7] mem_la_addr[8] mem_la_addr[9]
+ mem_la_read mem_la_wdata[0] mem_la_wdata[10] mem_la_wdata[11] mem_la_wdata[12] mem_la_wdata[13]
+ mem_la_wdata[14] mem_la_wdata[15] mem_la_wdata[16] mem_la_wdata[17] mem_la_wdata[18]
+ mem_la_wdata[19] mem_la_wdata[1] mem_la_wdata[20] mem_la_wdata[21] mem_la_wdata[22]
+ mem_la_wdata[23] mem_la_wdata[24] mem_la_wdata[25] mem_la_wdata[26] mem_la_wdata[27]
+ mem_la_wdata[28] mem_la_wdata[29] mem_la_wdata[2] mem_la_wdata[30] mem_la_wdata[31]
+ mem_la_wdata[3] mem_la_wdata[4] mem_la_wdata[5] mem_la_wdata[6] mem_la_wdata[7]
+ mem_la_wdata[8] mem_la_wdata[9] mem_la_write mem_la_wstrb[0] mem_la_wstrb[1] mem_la_wstrb[2]
+ mem_la_wstrb[3] mem_rdata[0] mem_rdata[10] mem_rdata[11] mem_rdata[12] mem_rdata[13]
+ mem_rdata[14] mem_rdata[15] mem_rdata[16] mem_rdata[17] mem_rdata[18] mem_rdata[19]
+ mem_rdata[1] mem_rdata[20] mem_rdata[21] mem_rdata[22] mem_rdata[23] mem_rdata[24]
+ mem_rdata[25] mem_rdata[26] mem_rdata[27] mem_rdata[28] mem_rdata[29] mem_rdata[2]
+ mem_rdata[30] mem_rdata[31] mem_rdata[3] mem_rdata[4] mem_rdata[5] mem_rdata[6]
+ mem_rdata[7] mem_rdata[8] mem_rdata[9] mem_ready mem_valid mem_wdata[0] mem_wdata[10]
+ mem_wdata[11] mem_wdata[12] mem_wdata[13] mem_wdata[14] mem_wdata[15] mem_wdata[16]
+ mem_wdata[17] mem_wdata[18] mem_wdata[19] mem_wdata[1] mem_wdata[20] mem_wdata[21]
+ mem_wdata[22] mem_wdata[23] mem_wdata[24] mem_wdata[25] mem_wdata[26] mem_wdata[27]
+ mem_wdata[28] mem_wdata[29] mem_wdata[2] mem_wdata[30] mem_wdata[31] mem_wdata[3]
+ mem_wdata[4] mem_wdata[5] mem_wdata[6] mem_wdata[7] mem_wdata[8] mem_wdata[9] mem_wstrb[0]
+ mem_wstrb[1] mem_wstrb[2] mem_wstrb[3] pcpi_insn[0] pcpi_insn[10] pcpi_insn[11]
+ pcpi_insn[12] pcpi_insn[13] pcpi_insn[14] pcpi_insn[15] pcpi_insn[16] pcpi_insn[17]
+ pcpi_insn[18] pcpi_insn[19] pcpi_insn[20] pcpi_insn[21] pcpi_insn[22] pcpi_insn[28]
+ pcpi_insn[29] pcpi_insn[30] pcpi_insn[31] pcpi_insn[9] pcpi_rd[0] pcpi_rd[10] pcpi_rd[11]
+ pcpi_rd[12] pcpi_rd[13] pcpi_rd[14] pcpi_rd[15] pcpi_rd[16] pcpi_rd[17] pcpi_rd[18]
+ pcpi_rd[19] pcpi_rd[1] pcpi_rd[20] pcpi_rd[21] pcpi_rd[22] pcpi_rd[23] pcpi_rd[24]
+ pcpi_rd[25] pcpi_rd[26] pcpi_rd[27] pcpi_rd[28] pcpi_rd[29] pcpi_rd[2] pcpi_rd[30]
+ pcpi_rd[31] pcpi_rd[3] pcpi_rd[4] pcpi_rd[5] pcpi_rd[6] pcpi_rd[7] pcpi_rd[8] pcpi_rd[9]
+ pcpi_ready pcpi_rs1[0] pcpi_rs1[10] pcpi_rs1[11] pcpi_rs1[12] pcpi_rs1[13] pcpi_rs1[14]
+ pcpi_rs1[15] pcpi_rs1[16] pcpi_rs1[17] pcpi_rs1[18] pcpi_rs1[19] pcpi_rs1[1] pcpi_rs1[20]
+ pcpi_rs1[21] pcpi_rs1[22] pcpi_rs1[23] pcpi_rs1[24] pcpi_rs1[25] pcpi_rs1[26] pcpi_rs1[27]
+ pcpi_rs1[28] pcpi_rs1[29] pcpi_rs1[2] pcpi_rs1[30] pcpi_rs1[31] pcpi_rs1[3] pcpi_rs1[4]
+ pcpi_rs1[5] pcpi_rs1[6] pcpi_rs1[7] pcpi_rs1[8] pcpi_rs1[9] pcpi_rs2[0] pcpi_rs2[10]
+ pcpi_rs2[11] pcpi_rs2[12] pcpi_rs2[13] pcpi_rs2[14] pcpi_rs2[15] pcpi_rs2[16] pcpi_rs2[17]
+ pcpi_rs2[18] pcpi_rs2[19] pcpi_rs2[1] pcpi_rs2[20] pcpi_rs2[21] pcpi_rs2[22] pcpi_rs2[23]
+ pcpi_rs2[24] pcpi_rs2[25] pcpi_rs2[26] pcpi_rs2[27] pcpi_rs2[28] pcpi_rs2[29] pcpi_rs2[2]
+ pcpi_rs2[30] pcpi_rs2[31] pcpi_rs2[3] pcpi_rs2[4] pcpi_rs2[5] pcpi_rs2[6] pcpi_rs2[7]
+ pcpi_rs2[8] pcpi_rs2[9] pcpi_wait pcpi_wr resetn trace_data[0] trace_data[15] trace_data[16]
+ trace_data[1] trace_data[20] trace_data[21] trace_data[22] trace_data[23] trace_data[24]
+ trace_data[25] trace_data[26] trace_data[27] trace_data[28] trace_data[29] trace_data[2]
+ trace_data[35] trace_data[3] trace_data[4] trace_data[5] trace_data[6] trace_data[7]
+ trace_data[8] trace_data[9] trace_valid trap pcpi_insn[27] pcpi_insn[26] trace_data[14]
+ pcpi_insn[25] trace_data[13] pcpi_insn[24] trace_data[12] trace_data[34] pcpi_insn[23]
+ trace_data[33] trace_data[11] trace_data[32] trace_data[10] pcpi_valid trace_data[31]
+ trace_data[30] trace_data[19] trace_data[18] trace_data[17] eoi[14] eoi[25] eoi[24]
+ eoi[13] eoi[23] eoi[12] mem_addr[1] pcpi_insn[8] eoi[11] eoi[22] pcpi_insn[7] mem_addr[0]
+ eoi[21] eoi[10] pcpi_insn[6] eoi[31] eoi[9] eoi[20] pcpi_insn[5] eoi[30] eoi[19]
+ eoi[8] eoi[18] eoi[29] pcpi_insn[4] eoi[7] eoi[28] eoi[17] pcpi_insn[3] eoi[6] eoi[27]
+ pcpi_insn[2] eoi[16] pcpi_insn[1] eoi[26]
X_09671_ cpuregs\[20\]\[19\] cpuregs\[21\]\[19\] cpuregs\[22\]\[19\] cpuregs\[23\]\[19\]
+ _03548_ _03449_ VGND VGND VPWR VPWR _04127_ sky130_fd_sc_hd__mux4_1
X_08622_ _03113_ _03138_ _03139_ VGND VGND VPWR VPWR _03140_ sky130_fd_sc_hd__o21ai_1
XFILLER_0_49_303 VGND VGND VPWR VPWR sky130_fd_sc_hd__decap_8
XFILLER_0_89_472 VGND VPWR VPWR VGND sky130_fd_sc_hd__decap_12
XPHY_EDGE_ROW_6_Left_168 VGND VGND VPWR VPWR sky130_fd_sc_hd__decap_3
X_08553_ reg_sh\[3\] reg_sh\[2\] reg_sh\[4\] VGND VGND VPWR VPWR _03073_ sky130_fd_sc_hd__nor3_1
X_07504_ _02142_ _02143_ _01954_ VGND VGND VPWR VPWR _02144_ sky130_fd_sc_hd__o21a_1
X_08484_ net252 _03015_ _01816_ VGND VGND VPWR VPWR _03016_ sky130_fd_sc_hd__mux2_1
XFILLER_0_65_829 VGND VGND VPWR VPWR sky130_fd_sc_hd__decap_3
XFILLER_0_76_155 VGND VPWR VPWR VGND sky130_fd_sc_hd__decap_12
XFILLER_0_159_393 VGND VPWR VPWR VGND sky130_fd_sc_hd__decap_12
XFILLER_0_64_306 VGND VGND VPWR VPWR sky130_fd_sc_hd__fill_2
XFILLER_0_77_689 VGND VGND VPWR VPWR sky130_fd_sc_hd__decap_6
X_07435_ _02062_ _02040_ _02077_ _02078_ _02059_ VGND VGND VPWR VPWR _02079_ sky130_fd_sc_hd__o311a_1
XFILLER_0_119_235 VGND VPWR VPWR VGND sky130_fd_sc_hd__decap_12
XFILLER_0_9_455 VGND VGND VPWR VPWR sky130_fd_sc_hd__fill_2
X_07366_ instr_rdcycleh VGND VGND VPWR VPWR _02014_ sky130_fd_sc_hd__clkbuf_4
XTAP_TAPCELL_ROW_44_1092 VGND VPWR sky130_fd_sc_hd__tapvpwrvgnd_1
XFILLER_0_91_169 VGND VGND VPWR VPWR sky130_fd_sc_hd__decap_8
XFILLER_0_32_203 VGND VPWR VPWR VGND sky130_fd_sc_hd__decap_12
X_09105_ cpuregs\[4\]\[3\] cpuregs\[5\]\[3\] cpuregs\[6\]\[3\] cpuregs\[7\]\[3\] _03439_
+ _03576_ VGND VGND VPWR VPWR _03577_ sky130_fd_sc_hd__mux4_1
XFILLER_0_134_249 VGND VGND VPWR VPWR sky130_fd_sc_hd__decap_3
X_07297_ instr_rdinstr VGND VGND VPWR VPWR _01949_ sky130_fd_sc_hd__buf_4
XTAP_TAPCELL_ROW_150_2905 VGND VPWR sky130_fd_sc_hd__tapvpwrvgnd_1
XFILLER_0_115_452 VGND VGND VPWR VPWR sky130_fd_sc_hd__fill_1
XFILLER_0_143_761 VGND VPWR VPWR VGND sky130_fd_sc_hd__decap_12
XFILLER_0_103_603 VGND VPWR VPWR VGND sky130_fd_sc_hd__decap_12
X_09036_ _03410_ _03509_ VGND VGND VPWR VPWR _03510_ sky130_fd_sc_hd__or2_1
XFILLER_0_60_578 VGND VGND VPWR VPWR sky130_fd_sc_hd__decap_8
XFILLER_0_102_113 VGND VGND VPWR VPWR sky130_fd_sc_hd__decap_6
Xhold340 cpuregs\[30\]\[7\] VGND VGND VPWR VPWR net699 sky130_fd_sc_hd__dlygate4sd3_1
XFILLER_0_102_157 VGND VGND VPWR VPWR sky130_fd_sc_hd__fill_2
Xhold351 cpuregs\[20\]\[19\] VGND VGND VPWR VPWR net710 sky130_fd_sc_hd__dlygate4sd3_1
XFILLER_0_40_280 VGND VGND VPWR VPWR sky130_fd_sc_hd__fill_2
XFILLER_0_7_81 VGND VPWR VPWR VGND sky130_fd_sc_hd__decap_12
Xhold362 cpuregs\[14\]\[22\] VGND VGND VPWR VPWR net721 sky130_fd_sc_hd__dlygate4sd3_1
Xhold373 cpuregs\[12\]\[30\] VGND VGND VPWR VPWR net732 sky130_fd_sc_hd__dlygate4sd3_1
Xhold384 cpuregs\[29\]\[24\] VGND VGND VPWR VPWR net743 sky130_fd_sc_hd__dlygate4sd3_1
Xhold395 cpuregs\[9\]\[15\] VGND VGND VPWR VPWR net754 sky130_fd_sc_hd__dlygate4sd3_1
X_09938_ _04305_ _04337_ _04339_ _02331_ decoded_imm\[26\] VGND VGND VPWR VPWR _04386_
+ sky130_fd_sc_hd__a32o_1
XTAP_TAPCELL_ROW_148_2867 VGND VPWR sky130_fd_sc_hd__tapvpwrvgnd_1
X_09869_ cpuregs\[16\]\[25\] cpuregs\[17\]\[25\] cpuregs\[18\]\[25\] cpuregs\[19\]\[25\]
+ _03548_ _03549_ VGND VGND VPWR VPWR _04319_ sky130_fd_sc_hd__mux4_1
Xhold1040 count_cycle\[53\] VGND VGND VPWR VPWR net1399 sky130_fd_sc_hd__dlygate4sd3_1
Xhold1051 count_cycle\[28\] VGND VGND VPWR VPWR net1410 sky130_fd_sc_hd__dlygate4sd3_1
X_11900_ _05712_ _05710_ _05714_ _05052_ VGND VGND VPWR VPWR _00729_ sky130_fd_sc_hd__a211oi_1
X_12880_ _05041_ _06566_ _06569_ _06529_ net441 VGND VGND VPWR VPWR _00845_ sky130_fd_sc_hd__a32o_1
XFILLER_0_99_269 VGND VGND VPWR VPWR sky130_fd_sc_hd__fill_2
*XANTENNA_202 net135 VGND VGND VPWR VPWR sky130_fd_sc_hd__diode_2
*XANTENNA_213 _03401_ VGND VGND VPWR VPWR sky130_fd_sc_hd__diode_2
X_11831_ count_cycle\[32\] count_cycle\[33\] count_cycle\[31\] _05661_ VGND VGND VPWR
+ VPWR _05667_ sky130_fd_sc_hd__and4_1
*XANTENNA_224 net199 VGND VGND VPWR VPWR sky130_fd_sc_hd__diode_2
*XANTENNA_235 net140 VGND VGND VPWR VPWR sky130_fd_sc_hd__diode_2
XTAP_TAPCELL_ROW_16_618 VGND VPWR sky130_fd_sc_hd__tapvpwrvgnd_1
XTAP_TAPCELL_ROW_16_629 VGND VPWR sky130_fd_sc_hd__tapvpwrvgnd_1
X_14550_ clknet_leaf_8_clk _00208_ VGND VGND VPWR VPWR cpuregs\[2\]\[12\] sky130_fd_sc_hd__dfxtp_1
X_11762_ _05619_ VGND VGND VPWR VPWR _00686_ sky130_fd_sc_hd__clkbuf_1
XTAP_TAPCELL_ROW_64_1435 VGND VPWR sky130_fd_sc_hd__tapvpwrvgnd_1
XFILLER_0_138_533 VGND VGND VPWR VPWR sky130_fd_sc_hd__fill_2
X_13501_ _06887_ VGND VGND VPWR VPWR _06910_ sky130_fd_sc_hd__buf_4
X_10713_ cpuregs\[26\]\[16\] _04852_ _04840_ VGND VGND VPWR VPWR _04853_ sky130_fd_sc_hd__mux2_1
XFILLER_0_49_892 VGND VGND VPWR VPWR sky130_fd_sc_hd__decap_4
X_14481_ clknet_leaf_35_clk _00139_ VGND VGND VPWR VPWR cpuregs\[30\]\[7\] sky130_fd_sc_hd__dfxtp_1
X_11693_ _05560_ _05561_ _05564_ _05565_ VGND VGND VPWR VPWR _05566_ sky130_fd_sc_hd__a2bb2o_1
XFILLER_0_125_205 VGND VGND VPWR VPWR sky130_fd_sc_hd__decap_8
XFILLER_0_36_542 VGND VGND VPWR VPWR sky130_fd_sc_hd__decap_3
X_13432_ _06873_ VGND VGND VPWR VPWR _01113_ sky130_fd_sc_hd__clkbuf_1
X_10644_ _04808_ VGND VGND VPWR VPWR _00379_ sky130_fd_sc_hd__clkbuf_1
XFILLER_0_70_309 VGND VGND VPWR VPWR sky130_fd_sc_hd__decap_3
XFILLER_0_107_931 VGND VGND VPWR VPWR sky130_fd_sc_hd__fill_2
XFILLER_0_118_290 VGND VGND VPWR VPWR sky130_fd_sc_hd__decap_3
X_10575_ net1019 _03334_ _04768_ VGND VGND VPWR VPWR _04772_ sky130_fd_sc_hd__mux2_1
X_13363_ net1224 _04858_ _06827_ VGND VGND VPWR VPWR _06837_ sky130_fd_sc_hd__mux2_1
XFILLER_0_3_609 VGND VGND VPWR VPWR sky130_fd_sc_hd__decap_6
XFILLER_0_63_383 VGND VGND VPWR VPWR sky130_fd_sc_hd__fill_1
XFILLER_0_91_692 VGND VGND VPWR VPWR sky130_fd_sc_hd__decap_8
Xrebuffer7 net387 VGND VGND VPWR VPWR net366 sky130_fd_sc_hd__clkbuf_1
XFILLER_0_23_225 VGND VGND VPWR VPWR sky130_fd_sc_hd__decap_6
XFILLER_0_51_545 VGND VGND VPWR VPWR sky130_fd_sc_hd__fill_1
X_15102_ clknet_leaf_104_clk _07126_ VGND VGND VPWR VPWR reg_out\[20\] sky130_fd_sc_hd__dfxtp_1
XFILLER_0_106_474 VGND VGND VPWR VPWR sky130_fd_sc_hd__fill_2
X_12314_ _06026_ _06071_ _03081_ VGND VGND VPWR VPWR _06072_ sky130_fd_sc_hd__o21a_1
X_16082_ net124 VGND VGND VPWR VPWR net230 sky130_fd_sc_hd__clkbuf_2
X_13294_ _06800_ VGND VGND VPWR VPWR _01016_ sky130_fd_sc_hd__clkbuf_1
X_15033_ clknet_leaf_122_clk _00691_ VGND VGND VPWR VPWR count_cycle\[16\] sky130_fd_sc_hd__dfxtp_1
X_12245_ cpuregs\[24\]\[9\] cpuregs\[25\]\[9\] cpuregs\[26\]\[9\] cpuregs\[27\]\[9\]
+ _03095_ _05932_ VGND VGND VPWR VPWR _06006_ sky130_fd_sc_hd__mux4_1
X_12176_ cpuregs\[0\]\[7\] cpuregs\[1\]\[7\] cpuregs\[2\]\[7\] cpuregs\[3\]\[7\] _05908_
+ _05909_ VGND VGND VPWR VPWR _05939_ sky130_fd_sc_hd__mux4_1
X_11127_ net559 _05095_ _05097_ VGND VGND VPWR VPWR _00573_ sky130_fd_sc_hd__o21a_1
X_11058_ _05048_ VGND VGND VPWR VPWR _00553_ sky130_fd_sc_hd__clkbuf_1
X_15935_ clknet_leaf_132_clk _01507_ VGND VGND VPWR VPWR cpuregs\[0\]\[29\] sky130_fd_sc_hd__dfxtp_1
XFILLER_0_3_39 VGND VPWR VPWR VGND sky130_fd_sc_hd__decap_12
X_10009_ decoded_imm\[30\] _02380_ VGND VGND VPWR VPWR _04454_ sky130_fd_sc_hd__or2_1
X_15866_ clknet_leaf_135_clk _01438_ VGND VGND VPWR VPWR cpuregs\[7\]\[24\] sky130_fd_sc_hd__dfxtp_1
X_14817_ clknet_leaf_147_clk _00475_ VGND VGND VPWR VPWR cpuregs\[25\]\[23\] sky130_fd_sc_hd__dfxtp_1
X_15797_ clknet_leaf_141_clk _01372_ VGND VGND VPWR VPWR cpuregs\[5\]\[22\] sky130_fd_sc_hd__dfxtp_1
XTAP_TAPCELL_ROW_35_938 VGND VPWR sky130_fd_sc_hd__tapvpwrvgnd_1
XTAP_TAPCELL_ROW_35_949 VGND VPWR sky130_fd_sc_hd__tapvpwrvgnd_1
X_14748_ clknet_leaf_157_clk _00406_ VGND VGND VPWR VPWR cpuregs\[26\]\[18\] sky130_fd_sc_hd__dfxtp_1
XFILLER_0_47_818 VGND VGND VPWR VPWR sky130_fd_sc_hd__fill_1
XFILLER_0_157_853 VGND VPWR VPWR VGND sky130_fd_sc_hd__decap_12
XFILLER_0_86_475 VGND VGND VPWR VPWR sky130_fd_sc_hd__fill_1
X_14679_ clknet_leaf_152_clk _00337_ VGND VGND VPWR VPWR cpuregs\[27\]\[13\] sky130_fd_sc_hd__dfxtp_1
XFILLER_0_156_363 VGND VGND VPWR VPWR sky130_fd_sc_hd__fill_1
XFILLER_0_39_380 VGND VGND VPWR VPWR sky130_fd_sc_hd__decap_3
XFILLER_0_13_51 VGND VGND VPWR VPWR sky130_fd_sc_hd__decap_4
XFILLER_0_157_897 VGND VPWR VPWR VGND sky130_fd_sc_hd__decap_12
XFILLER_0_116_205 VGND VGND VPWR VPWR sky130_fd_sc_hd__decap_4
X_07220_ _01882_ VGND VGND VPWR VPWR _00002_ sky130_fd_sc_hd__clkbuf_1
XFILLER_0_13_95 VGND VGND VPWR VPWR sky130_fd_sc_hd__fill_1
XFILLER_0_89_11 VGND VGND VPWR VPWR sky130_fd_sc_hd__fill_2
XFILLER_0_116_238 VGND VGND VPWR VPWR sky130_fd_sc_hd__fill_2
XFILLER_0_109_290 VGND VGND VPWR VPWR sky130_fd_sc_hd__decap_6
X_07151_ _01819_ VGND VGND VPWR VPWR net96 sky130_fd_sc_hd__buf_1
XFILLER_0_27_597 VGND VGND VPWR VPWR sky130_fd_sc_hd__decap_4
XFILLER_0_89_55 VGND VGND VPWR VPWR sky130_fd_sc_hd__fill_1
XFILLER_0_42_578 VGND VGND VPWR VPWR sky130_fd_sc_hd__fill_1
XFILLER_0_23_770 VGND VGND VPWR VPWR sky130_fd_sc_hd__fill_1
XFILLER_0_11_921 VGND VPWR VPWR VGND sky130_fd_sc_hd__decap_12
XFILLER_0_10_475 VGND VGND VPWR VPWR sky130_fd_sc_hd__fill_1
XFILLER_0_10_497 VGND VPWR VPWR VGND sky130_fd_sc_hd__decap_12
X_07984_ _02507_ _02503_ _02509_ _02573_ VGND VGND VPWR VPWR _02601_ sky130_fd_sc_hd__o31a_1
XFILLER_0_38_70 VGND VGND VPWR VPWR sky130_fd_sc_hd__decap_4
X_09723_ decoded_imm\[21\] net184 VGND VGND VPWR VPWR _04177_ sky130_fd_sc_hd__nand2_1
X_09654_ _03574_ _04102_ _04110_ VGND VGND VPWR VPWR _04111_ sky130_fd_sc_hd__and3_1
XFILLER_0_97_718 VGND VGND VPWR VPWR sky130_fd_sc_hd__fill_1
XFILLER_0_97_729 VGND VPWR VPWR VGND sky130_fd_sc_hd__decap_12
XTAP_TAPCELL_ROW_2_379 VGND VPWR sky130_fd_sc_hd__tapvpwrvgnd_1
XFILLER_0_78_921 VGND VGND VPWR VPWR sky130_fd_sc_hd__decap_3
X_08605_ _03054_ VGND VGND VPWR VPWR _03123_ sky130_fd_sc_hd__clkbuf_4
XTAP_TAPCELL_ROW_143_2775 VGND VPWR sky130_fd_sc_hd__tapvpwrvgnd_1
XTAP_TAPCELL_ROW_143_2786 VGND VPWR sky130_fd_sc_hd__tapvpwrvgnd_1
X_09585_ _03500_ _04043_ _03468_ VGND VGND VPWR VPWR _04044_ sky130_fd_sc_hd__o21a_1
XFILLER_0_145_93 VGND VPWR VPWR VGND sky130_fd_sc_hd__decap_12
XFILLER_0_49_122 VGND VGND VPWR VPWR sky130_fd_sc_hd__decap_4
X_08536_ _03035_ _03041_ _03044_ _03049_ _03055_ VGND VGND VPWR VPWR _03056_ sky130_fd_sc_hd__a32o_1
XTAP_TAPCELL_ROW_46_1132 VGND VPWR sky130_fd_sc_hd__tapvpwrvgnd_1
XFILLER_0_77_486 VGND VGND VPWR VPWR sky130_fd_sc_hd__fill_1
XFILLER_0_148_853 VGND VPWR VPWR VGND sky130_fd_sc_hd__decap_12
X_08467_ _03004_ VGND VGND VPWR VPWR net81 sky130_fd_sc_hd__buf_1
XFILLER_0_93_957 VGND VGND VPWR VPWR sky130_fd_sc_hd__fill_2
XFILLER_0_108_717 VGND VGND VPWR VPWR sky130_fd_sc_hd__decap_8
XFILLER_0_18_531 VGND VGND VPWR VPWR sky130_fd_sc_hd__fill_1
XFILLER_0_147_374 VGND VGND VPWR VPWR sky130_fd_sc_hd__decap_3
X_07418_ _02062_ _02040_ VGND VGND VPWR VPWR _02063_ sky130_fd_sc_hd__nor2_1
XFILLER_0_52_309 VGND VGND VPWR VPWR sky130_fd_sc_hd__decap_8
X_08398_ _02956_ VGND VGND VPWR VPWR net90 sky130_fd_sc_hd__buf_1
XFILLER_0_46_884 VGND VGND VPWR VPWR sky130_fd_sc_hd__decap_8
XFILLER_0_107_249 VGND VGND VPWR VPWR sky130_fd_sc_hd__decap_6
X_07349_ _01996_ _01997_ _01954_ VGND VGND VPWR VPWR _01998_ sky130_fd_sc_hd__o21a_2
XFILLER_0_60_331 VGND VGND VPWR VPWR sky130_fd_sc_hd__fill_1
XFILLER_0_104_912 VGND VPWR VPWR VGND sky130_fd_sc_hd__decap_12
XTAP_TAPCELL_ROW_21_698 VGND VPWR sky130_fd_sc_hd__tapvpwrvgnd_1
X_10360_ cpuregs\[28\]\[19\] _03307_ _04647_ VGND VGND VPWR VPWR _04657_ sky130_fd_sc_hd__mux2_1
XFILLER_0_103_411 VGND VGND VPWR VPWR sky130_fd_sc_hd__fill_2
XFILLER_0_21_729 VGND VGND VPWR VPWR sky130_fd_sc_hd__decap_6
X_09019_ _03492_ VGND VGND VPWR VPWR _03493_ sky130_fd_sc_hd__inv_2
X_10291_ _04620_ VGND VGND VPWR VPWR _00214_ sky130_fd_sc_hd__clkbuf_1
X_12030_ is_beq_bne_blt_bge_bltu_bgeu VGND VGND VPWR VPWR _05803_ sky130_fd_sc_hd__inv_2
Xhold170 instr_lhu VGND VGND VPWR VPWR net529 sky130_fd_sc_hd__dlygate4sd3_1
Xhold181 cpuregs\[0\]\[28\] VGND VGND VPWR VPWR net540 sky130_fd_sc_hd__dlygate4sd3_1
Xhold192 instr_slt VGND VGND VPWR VPWR net551 sky130_fd_sc_hd__dlygate4sd3_1
XFILLER_0_18_29 VGND VPWR VPWR VGND sky130_fd_sc_hd__decap_12
X_13981_ net1316 _06937_ _01602_ VGND VGND VPWR VPWR _01609_ sky130_fd_sc_hd__mux2_1
X_15720_ clknet_leaf_31_clk _01295_ VGND VGND VPWR VPWR cpuregs\[22\]\[9\] sky130_fd_sc_hd__dfxtp_1
X_12932_ decoded_imm_j\[10\] _01092_ _03169_ VGND VGND VPWR VPWR _06601_ sky130_fd_sc_hd__mux2_1
X_15651_ clknet_leaf_45_clk _01226_ VGND VGND VPWR VPWR cpuregs\[29\]\[4\] sky130_fd_sc_hd__dfxtp_1
X_12863_ net672 _06554_ _06556_ net647 VGND VGND VPWR VPWR _00835_ sky130_fd_sc_hd__a22o_1
XFILLER_0_158_628 VGND VGND VPWR VPWR sky130_fd_sc_hd__fill_2
XFILLER_0_157_105 VGND VGND VPWR VPWR sky130_fd_sc_hd__decap_6
X_14602_ clknet_leaf_54_clk _00260_ VGND VGND VPWR VPWR cpuregs\[21\]\[0\] sky130_fd_sc_hd__dfxtp_1
X_11814_ net487 _05652_ _05647_ VGND VGND VPWR VPWR _05656_ sky130_fd_sc_hd__o21ai_1
X_15582_ clknet_leaf_21_clk _01157_ VGND VGND VPWR VPWR cpuregs\[9\]\[31\] sky130_fd_sc_hd__dfxtp_1
X_12794_ _06521_ VGND VGND VPWR VPWR _01066_ sky130_fd_sc_hd__buf_1
XFILLER_0_157_149 VGND VPWR VPWR VGND sky130_fd_sc_hd__decap_12
X_14533_ clknet_leaf_137_clk _00191_ VGND VGND VPWR VPWR cpuregs\[13\]\[27\] sky130_fd_sc_hd__dfxtp_1
X_11745_ net542 _05604_ _05169_ VGND VGND VPWR VPWR _05608_ sky130_fd_sc_hd__o21ai_1
XTAP_TAPCELL_ROW_99_2029 VGND VPWR sky130_fd_sc_hd__tapvpwrvgnd_1
XFILLER_0_138_363 VGND VGND VPWR VPWR sky130_fd_sc_hd__fill_1
XFILLER_0_50_38 VGND VGND VPWR VPWR sky130_fd_sc_hd__fill_2
XFILLER_0_37_862 VGND VGND VPWR VPWR sky130_fd_sc_hd__decap_6
X_14464_ clknet_leaf_137_clk _00122_ VGND VGND VPWR VPWR cpuregs\[12\]\[22\] sky130_fd_sc_hd__dfxtp_1
X_11676_ _05494_ _05251_ VGND VGND VPWR VPWR _05550_ sky130_fd_sc_hd__nor2_1
XFILLER_0_71_629 VGND VGND VPWR VPWR sky130_fd_sc_hd__decap_8
XFILLER_0_36_361 VGND VGND VPWR VPWR sky130_fd_sc_hd__decap_3
XFILLER_0_52_810 VGND VGND VPWR VPWR sky130_fd_sc_hd__fill_2
XFILLER_0_126_558 VGND VPWR VPWR VGND sky130_fd_sc_hd__decap_12
XFILLER_0_154_867 VGND VGND VPWR VPWR sky130_fd_sc_hd__fill_1
X_13415_ net1110 _04842_ _06863_ VGND VGND VPWR VPWR _06865_ sky130_fd_sc_hd__mux2_1
X_10627_ _04799_ VGND VGND VPWR VPWR _00371_ sky130_fd_sc_hd__clkbuf_1
X_14395_ clknet_leaf_135_clk _00058_ VGND VGND VPWR VPWR cpuregs\[11\]\[21\] sky130_fd_sc_hd__dfxtp_1
XFILLER_0_24_545 VGND VGND VPWR VPWR sky130_fd_sc_hd__fill_1
XFILLER_0_3_417 VGND VPWR VPWR VGND sky130_fd_sc_hd__decap_12
X_13346_ _06828_ VGND VGND VPWR VPWR _01040_ sky130_fd_sc_hd__clkbuf_1
XFILLER_0_122_720 VGND VPWR VPWR VGND sky130_fd_sc_hd__decap_12
Xpicorv32_306 VGND VGND VPWR VPWR picorv32_306/HI pcpi_insn[16] sky130_fd_sc_hd__conb_1
X_10558_ net1103 _03282_ _04757_ VGND VGND VPWR VPWR _04763_ sky130_fd_sc_hd__mux2_1
Xpicorv32_317 VGND VGND VPWR VPWR picorv32_317/HI pcpi_insn[27] sky130_fd_sc_hd__conb_1
Xpicorv32_328 VGND VGND VPWR VPWR picorv32_328/HI trace_data[5] sky130_fd_sc_hd__conb_1
XTAP_TAPCELL_ROW_77_1659 VGND VPWR sky130_fd_sc_hd__tapvpwrvgnd_1
Xpicorv32_339 VGND VGND VPWR VPWR picorv32_339/HI trace_data[16] sky130_fd_sc_hd__conb_1
XTAP_TAPCELL_ROW_94_1940 VGND VPWR sky130_fd_sc_hd__tapvpwrvgnd_1
X_13277_ net1175 _04839_ _06791_ VGND VGND VPWR VPWR _06792_ sky130_fd_sc_hd__mux2_1
XTAP_TAPCELL_ROW_94_1951 VGND VPWR sky130_fd_sc_hd__tapvpwrvgnd_1
X_10489_ cpuregs\[14\]\[15\] _03282_ _04720_ VGND VGND VPWR VPWR _04726_ sky130_fd_sc_hd__mux2_1
XTAP_TAPCELL_ROW_110_2218 VGND VPWR sky130_fd_sc_hd__tapvpwrvgnd_1
X_15016_ clknet_leaf_106_clk _00674_ VGND VGND VPWR VPWR reg_next_pc\[31\] sky130_fd_sc_hd__dfxtp_1
XFILLER_0_121_285 VGND VGND VPWR VPWR sky130_fd_sc_hd__fill_1
X_12228_ _02476_ _05989_ _05863_ VGND VGND VPWR VPWR _05990_ sky130_fd_sc_hd__mux2_1
XFILLER_0_20_795 VGND VGND VPWR VPWR sky130_fd_sc_hd__decap_4
X_12159_ cpuregs\[20\]\[6\] cpuregs\[21\]\[6\] cpuregs\[22\]\[6\] cpuregs\[23\]\[6\]
+ _05921_ _05922_ VGND VGND VPWR VPWR _05923_ sky130_fd_sc_hd__mux4_1
XFILLER_0_75_35 VGND VPWR VPWR VGND sky130_fd_sc_hd__decap_12
XPHY_EDGE_ROW_87_Left_249 VGND VGND VPWR VPWR sky130_fd_sc_hd__decap_3
XFILLER_0_75_57 VGND VGND VPWR VPWR sky130_fd_sc_hd__fill_1
X_15918_ clknet_leaf_5_clk _01490_ VGND VGND VPWR VPWR cpuregs\[0\]\[12\] sky130_fd_sc_hd__dfxtp_1
XTAP_TAPCELL_ROW_160_3064 VGND VPWR sky130_fd_sc_hd__tapvpwrvgnd_1
XTAP_TAPCELL_ROW_160_3075 VGND VPWR sky130_fd_sc_hd__tapvpwrvgnd_1
XFILLER_0_78_206 VGND VGND VPWR VPWR sky130_fd_sc_hd__fill_2
XFILLER_0_79_729 VGND VPWR VPWR VGND sky130_fd_sc_hd__decap_12
X_15849_ clknet_leaf_34_clk _01421_ VGND VGND VPWR VPWR cpuregs\[7\]\[7\] sky130_fd_sc_hd__dfxtp_1
XTAP_TAPCELL_ROW_125_2472 VGND VPWR sky130_fd_sc_hd__tapvpwrvgnd_1
XFILLER_0_149_606 VGND VGND VPWR VPWR sky130_fd_sc_hd__decap_4
XFILLER_0_59_442 VGND VGND VPWR VPWR sky130_fd_sc_hd__decap_3
X_09370_ _03795_ _03831_ _03834_ VGND VGND VPWR VPWR _03835_ sky130_fd_sc_hd__a21o_1
XFILLER_0_74_401 VGND VGND VPWR VPWR sky130_fd_sc_hd__decap_8
XFILLER_0_24_72 VGND VGND VPWR VPWR sky130_fd_sc_hd__fill_2
X_08321_ _02380_ _02909_ VGND VGND VPWR VPWR _02911_ sky130_fd_sc_hd__or2_1
XPHY_EDGE_ROW_96_Left_258 VGND VGND VPWR VPWR sky130_fd_sc_hd__decap_3
XFILLER_0_117_503 VGND VGND VPWR VPWR sky130_fd_sc_hd__fill_1
X_08252_ _02845_ _02846_ _02844_ _02807_ _02847_ VGND VGND VPWR VPWR _02848_ sky130_fd_sc_hd__a221o_1
XFILLER_0_157_694 VGND VPWR VPWR VGND sky130_fd_sc_hd__decap_12
XFILLER_0_34_309 VGND VGND VPWR VPWR sky130_fd_sc_hd__decap_3
XFILLER_0_6_222 VGND VPWR VPWR VGND sky130_fd_sc_hd__decap_12
XFILLER_0_74_489 VGND VGND VPWR VPWR sky130_fd_sc_hd__fill_1
X_07203_ instr_lhu instr_lh _01867_ VGND VGND VPWR VPWR _01868_ sky130_fd_sc_hd__nor3_1
XTAP_TAPCELL_ROW_41_1040 VGND VPWR sky130_fd_sc_hd__tapvpwrvgnd_1
XTAP_TAPCELL_ROW_41_1051 VGND VPWR sky130_fd_sc_hd__tapvpwrvgnd_1
X_08183_ net180 _02783_ VGND VGND VPWR VPWR _02785_ sky130_fd_sc_hd__nor2_1
Xclkbuf_4_12_0_clk clknet_0_clk VGND VGND VPWR VPWR clknet_4_12_0_clk sky130_fd_sc_hd__clkbuf_8
XFILLER_0_160_837 VGND VPWR VPWR VGND sky130_fd_sc_hd__decap_12
XFILLER_0_6_288 VGND VGND VPWR VPWR sky130_fd_sc_hd__decap_4
XFILLER_0_15_589 VGND VPWR VPWR VGND sky130_fd_sc_hd__decap_12
XFILLER_0_3_951 VGND VGND VPWR VPWR sky130_fd_sc_hd__fill_1
XFILLER_0_71_3 VGND VGND VPWR VPWR sky130_fd_sc_hd__fill_1
Xoutput220 net220 VGND VGND VPWR VPWR pcpi_rs2[25] sky130_fd_sc_hd__buf_2
Xoutput231 net231 VGND VGND VPWR VPWR pcpi_rs2[6] sky130_fd_sc_hd__clkbuf_4
XFILLER_0_100_447 VGND VGND VPWR VPWR sky130_fd_sc_hd__decap_8
XTAP_TAPCELL_ROW_145_2815 VGND VPWR sky130_fd_sc_hd__tapvpwrvgnd_1
X_07967_ _02584_ VGND VGND VPWR VPWR _02585_ sky130_fd_sc_hd__clkbuf_4
X_09706_ cpuregs\[24\]\[20\] cpuregs\[25\]\[20\] cpuregs\[26\]\[20\] cpuregs\[27\]\[20\]
+ _03640_ _03496_ VGND VGND VPWR VPWR _04161_ sky130_fd_sc_hd__mux4_1
X_07898_ net249 VGND VGND VPWR VPWR _02518_ sky130_fd_sc_hd__inv_2
XFILLER_0_69_217 VGND VGND VPWR VPWR sky130_fd_sc_hd__decap_6
X_09637_ _03075_ _04091_ _04093_ _01943_ VGND VGND VPWR VPWR _04094_ sky130_fd_sc_hd__o211a_1
X_09568_ _04025_ _04026_ VGND VGND VPWR VPWR _04027_ sky130_fd_sc_hd__nor2_1
XFILLER_0_65_412 VGND VGND VPWR VPWR sky130_fd_sc_hd__decap_3
X_08519_ _00008_ VGND VGND VPWR VPWR _03039_ sky130_fd_sc_hd__buf_4
X_09499_ _03890_ _03959_ _03075_ VGND VGND VPWR VPWR _03960_ sky130_fd_sc_hd__o21ai_1
XFILLER_0_37_147 VGND VGND VPWR VPWR sky130_fd_sc_hd__decap_8
X_11530_ _05193_ reg_next_pc\[14\] _05220_ _05403_ _01905_ VGND VGND VPWR VPWR _05417_
+ sky130_fd_sc_hd__o221a_1
XFILLER_0_37_169 VGND VGND VPWR VPWR sky130_fd_sc_hd__fill_2
XFILLER_0_65_478 VGND VGND VPWR VPWR sky130_fd_sc_hd__fill_1
XFILLER_0_147_182 VGND VPWR VPWR VGND sky130_fd_sc_hd__decap_12
XFILLER_0_19_895 VGND VGND VPWR VPWR sky130_fd_sc_hd__fill_1
XFILLER_0_81_949 VGND VGND VPWR VPWR sky130_fd_sc_hd__decap_3
XPHY_EDGE_ROW_137_Right_137 VGND VGND VPWR VPWR sky130_fd_sc_hd__decap_3
X_11461_ _05346_ _05349_ _05351_ _05345_ VGND VGND VPWR VPWR _05353_ sky130_fd_sc_hd__a31o_1
XTAP_TAPCELL_ROW_156_2999 VGND VPWR sky130_fd_sc_hd__tapvpwrvgnd_1
XFILLER_0_18_394 VGND VGND VPWR VPWR sky130_fd_sc_hd__fill_1
XFILLER_0_123_517 VGND VGND VPWR VPWR sky130_fd_sc_hd__fill_1
XFILLER_0_151_837 VGND VGND VPWR VPWR sky130_fd_sc_hd__decap_3
X_13200_ decoded_imm\[24\] _06740_ _06737_ _06748_ VGND VGND VPWR VPWR _00974_ sky130_fd_sc_hd__o22a_1
X_10412_ _04685_ VGND VGND VPWR VPWR _00270_ sky130_fd_sc_hd__clkbuf_1
X_11392_ _05288_ VGND VGND VPWR VPWR _05289_ sky130_fd_sc_hd__clkbuf_4
X_14180_ _01714_ VGND VGND VPWR VPWR _01449_ sky130_fd_sc_hd__clkbuf_1
XFILLER_0_61_673 VGND VPWR VPWR VGND sky130_fd_sc_hd__decap_12
XTAP_TAPCELL_ROW_59_1345 VGND VPWR sky130_fd_sc_hd__tapvpwrvgnd_1
XFILLER_0_21_537 VGND VGND VPWR VPWR sky130_fd_sc_hd__decap_6
XTAP_TAPCELL_ROW_59_1356 VGND VPWR sky130_fd_sc_hd__tapvpwrvgnd_1
X_13131_ net148 net110 _06707_ VGND VGND VPWR VPWR _06709_ sky130_fd_sc_hd__mux2_1
X_10343_ _04648_ VGND VGND VPWR VPWR _00238_ sky130_fd_sc_hd__clkbuf_1
XFILLER_0_104_775 VGND VPWR VPWR VGND sky130_fd_sc_hd__decap_12
XFILLER_0_131_561 VGND VPWR VPWR VGND sky130_fd_sc_hd__decap_12
XFILLER_0_103_274 VGND VGND VPWR VPWR sky130_fd_sc_hd__decap_6
X_10274_ net1395 _03248_ _04611_ VGND VGND VPWR VPWR _04612_ sky130_fd_sc_hd__mux2_1
X_13062_ net1082 _04881_ _06635_ VGND VGND VPWR VPWR _06669_ sky130_fd_sc_hd__mux2_1
X_12013_ _05793_ VGND VGND VPWR VPWR _00763_ sky130_fd_sc_hd__clkbuf_1
XTAP_TAPCELL_ROW_72_1567 VGND VPWR sky130_fd_sc_hd__tapvpwrvgnd_1
XTAP_TAPCELL_ROW_72_1578 VGND VPWR sky130_fd_sc_hd__tapvpwrvgnd_1
XFILLER_0_136_18 VGND VGND VPWR VPWR sky130_fd_sc_hd__decap_8
XFILLER_0_136_29 VGND VPWR VPWR VGND sky130_fd_sc_hd__decap_12
X_13964_ _01599_ VGND VGND VPWR VPWR _01348_ sky130_fd_sc_hd__clkbuf_1
X_15703_ clknet_leaf_134_clk _01278_ VGND VGND VPWR VPWR cpuregs\[3\]\[24\] sky130_fd_sc_hd__dfxtp_1
X_12915_ _06592_ VGND VGND VPWR VPWR _01088_ sky130_fd_sc_hd__clkbuf_1
X_13895_ _01562_ VGND VGND VPWR VPWR _01316_ sky130_fd_sc_hd__clkbuf_1
X_15634_ clknet_leaf_155_clk _01209_ VGND VGND VPWR VPWR cpuregs\[23\]\[19\] sky130_fd_sc_hd__dfxtp_1
XFILLER_0_0_29 VGND VPWR VPWR VGND sky130_fd_sc_hd__decap_12
X_12846_ net956 _06554_ _06556_ is_lb_lh_lw_lbu_lhu VGND VGND VPWR VPWR _00824_ sky130_fd_sc_hd__a22o_1
XFILLER_0_158_469 VGND VGND VPWR VPWR sky130_fd_sc_hd__decap_6
XFILLER_0_96_581 VGND VGND VPWR VPWR sky130_fd_sc_hd__fill_1
X_15565_ clknet_leaf_17_clk _01140_ VGND VGND VPWR VPWR cpuregs\[9\]\[14\] sky130_fd_sc_hd__dfxtp_1
XFILLER_0_57_957 VGND VGND VPWR VPWR sky130_fd_sc_hd__fill_2
XTAP_TAPCELL_ROW_103_2099 VGND VPWR sky130_fd_sc_hd__tapvpwrvgnd_1
X_12777_ instr_lb _01928_ _06509_ VGND VGND VPWR VPWR _06511_ sky130_fd_sc_hd__a21bo_1
XFILLER_0_131_6 VGND VPWR VPWR VGND sky130_fd_sc_hd__decap_12
XTAP_TAPCELL_ROW_120_2391 VGND VPWR sky130_fd_sc_hd__tapvpwrvgnd_1
X_14516_ clknet_leaf_10_clk _00174_ VGND VGND VPWR VPWR cpuregs\[13\]\[10\] sky130_fd_sc_hd__dfxtp_1
X_11728_ _05052_ net431 VGND VGND VPWR VPWR _00675_ sky130_fd_sc_hd__nor2_1
XFILLER_0_44_618 VGND VPWR VPWR VGND sky130_fd_sc_hd__decap_12
X_15496_ clknet_leaf_89_clk _01081_ VGND VGND VPWR VPWR mem_rdata_q\[19\] sky130_fd_sc_hd__dfxtp_1
XFILLER_0_56_489 VGND VGND VPWR VPWR sky130_fd_sc_hd__decap_4
XFILLER_0_9_27 VGND VPWR VPWR VGND sky130_fd_sc_hd__decap_12
XFILLER_0_126_355 VGND VGND VPWR VPWR sky130_fd_sc_hd__decap_3
XPHY_EDGE_ROW_104_Right_104 VGND VGND VPWR VPWR sky130_fd_sc_hd__decap_3
X_14447_ clknet_leaf_38_clk _00105_ VGND VGND VPWR VPWR cpuregs\[12\]\[5\] sky130_fd_sc_hd__dfxtp_1
X_11659_ _05530_ _05532_ _05533_ VGND VGND VPWR VPWR _05535_ sky130_fd_sc_hd__nor3_1
XFILLER_0_126_377 VGND VGND VPWR VPWR sky130_fd_sc_hd__fill_1
XFILLER_0_142_837 VGND VPWR VPWR VGND sky130_fd_sc_hd__decap_12
XFILLER_0_4_737 VGND VPWR VPWR VGND sky130_fd_sc_hd__decap_12
XFILLER_0_101_21 VGND VGND VPWR VPWR sky130_fd_sc_hd__decap_3
XFILLER_0_114_539 VGND VGND VPWR VPWR sky130_fd_sc_hd__fill_2
XFILLER_0_3_225 VGND VPWR VPWR VGND sky130_fd_sc_hd__decap_12
XFILLER_0_107_580 VGND VGND VPWR VPWR sky130_fd_sc_hd__fill_2
X_14378_ clknet_leaf_26_clk _00041_ VGND VGND VPWR VPWR cpuregs\[11\]\[4\] sky130_fd_sc_hd__dfxtp_1
XFILLER_0_10_41 VGND VPWR VPWR VGND sky130_fd_sc_hd__decap_12
Xhold906 cpuregs\[13\]\[23\] VGND VGND VPWR VPWR net1265 sky130_fd_sc_hd__dlygate4sd3_1
XFILLER_0_24_386 VGND VGND VPWR VPWR sky130_fd_sc_hd__fill_2
Xhold917 cpuregs\[15\]\[31\] VGND VGND VPWR VPWR net1276 sky130_fd_sc_hd__dlygate4sd3_1
X_13329_ _06819_ VGND VGND VPWR VPWR _01032_ sky130_fd_sc_hd__clkbuf_1