* StdCell5V0Lib
* Autogenerated file; changes will be overwritten.
.subckt fill vdd vss
.ends fill

.subckt tie vdd vss
.ends tie

.subckt tie_diff vdd vss
.ends tie_diff

.subckt tie_poly vdd vss
.ends tie_poly

.subckt fill_w2 vdd vss
.ends fill_w2

.subckt tie_w2 vdd vss
.ends tie_w2

.subckt tie_diff_w2 vdd vss
.ends tie_diff_w2

.subckt tie_poly_w2 vdd vss
.ends tie_poly_w2

.subckt fill_w4 vdd vss
.ends fill_w4

.subckt tie_w4 vdd vss
.ends tie_w4

.subckt tie_diff_w4 vdd vss
.ends tie_diff_w4

.subckt tie_poly_w4 vdd vss
.ends tie_poly_w4

.subckt diode_w1 vdd vss i
.ends diode_w1

.subckt zero_x1 vdd vss zero
Mnpass vss one zero vss sky130_fd_pr__nfet_g5v0d10v5__model l=5e-07 w=1.495e-06
Mppass one zero vdd vdd sky130_fd_pr__pfet_g5v0d10v5__model l=5e-07 w=1.795e-06
.ends zero_x1

.subckt one_x1 vdd vss one
Mnpass vss one zero vss sky130_fd_pr__nfet_g5v0d10v5__model l=5e-07 w=1.495e-06
Mppass one zero vdd vdd sky130_fd_pr__pfet_g5v0d10v5__model l=5e-07 w=1.795e-06
.ends one_x1

.subckt zeroone_x1 vdd vss one zero
Mnpass vss one zero vss sky130_fd_pr__nfet_g5v0d10v5__model l=5e-07 w=1.495e-06
Mppass one zero vdd vdd sky130_fd_pr__pfet_g5v0d10v5__model l=5e-07 w=1.795e-06
.ends zeroone_x1

.subckt decap_w0 vdd vss
Mnpass vss one zero vss sky130_fd_pr__nfet_g5v0d10v5__model l=5e-07 w=1.495e-06
Mppass one zero vdd vdd sky130_fd_pr__pfet_g5v0d10v5__model l=5e-07 w=1.795e-06
.ends decap_w0

.subckt inv_x0 vdd vss i nq
Mnmos vss i nq vss sky130_fd_pr__nfet_g5v0d10v5__model l=5e-07 w=8.4e-07
Mpmos vdd i nq vdd sky130_fd_pr__pfet_g5v0d10v5__model l=5e-07 w=8.4e-07
.ends inv_x0

.subckt inv_x1 vdd vss i nq
Mnmos vss i nq vss sky130_fd_pr__nfet_g5v0d10v5__model l=5e-07 w=1.66e-06
Mpmos vdd i nq vdd sky130_fd_pr__pfet_g5v0d10v5__model l=5e-07 w=1.96e-06
.ends inv_x1

.subckt inv_x2 vdd vss i nq
Mnmos[0] vss i nq vss sky130_fd_pr__nfet_g5v0d10v5__model l=5e-07 w=1.66e-06
Mpmos[0] vdd i nq vdd sky130_fd_pr__pfet_g5v0d10v5__model l=5e-07 w=1.96e-06
Mnmos[1] nq i vss vss sky130_fd_pr__nfet_g5v0d10v5__model l=5e-07 w=1.66e-06
Mpmos[1] nq i vdd vdd sky130_fd_pr__pfet_g5v0d10v5__model l=5e-07 w=1.96e-06
.ends inv_x2

.subckt inv_x4 vdd vss i nq
Mnmos[0] vss i nq vss sky130_fd_pr__nfet_g5v0d10v5__model l=5e-07 w=1.66e-06
Mpmos[0] vdd i nq vdd sky130_fd_pr__pfet_g5v0d10v5__model l=5e-07 w=1.96e-06
Mnmos[1] nq i vss vss sky130_fd_pr__nfet_g5v0d10v5__model l=5e-07 w=1.66e-06
Mpmos[1] nq i vdd vdd sky130_fd_pr__pfet_g5v0d10v5__model l=5e-07 w=1.96e-06
Mnmos[2] vss i nq vss sky130_fd_pr__nfet_g5v0d10v5__model l=5e-07 w=1.66e-06
Mpmos[2] vdd i nq vdd sky130_fd_pr__pfet_g5v0d10v5__model l=5e-07 w=1.96e-06
Mnmos[3] nq i vss vss sky130_fd_pr__nfet_g5v0d10v5__model l=5e-07 w=1.66e-06
Mpmos[3] nq i vdd vdd sky130_fd_pr__pfet_g5v0d10v5__model l=5e-07 w=1.96e-06
.ends inv_x4

.subckt buf_x1 vdd vss i q
Mstage0_nmos _i_n i vss vss sky130_fd_pr__nfet_g5v0d10v5__model l=5e-07 w=8.4e-07
Mstage0_pmos _i_n i vdd vdd sky130_fd_pr__pfet_g5v0d10v5__model l=5e-07 w=8.4e-07
Mnmos vss _i_n q vss sky130_fd_pr__nfet_g5v0d10v5__model l=5e-07 w=1.225e-06
Mpmos vdd _i_n q vdd sky130_fd_pr__pfet_g5v0d10v5__model l=5e-07 w=1.525e-06
.ends buf_x1

.subckt buf_x2 vdd vss i q
Mstage0_nmos _i_n i vss vss sky130_fd_pr__nfet_g5v0d10v5__model l=5e-07 w=8.4e-07
Mstage0_pmos _i_n i vdd vdd sky130_fd_pr__pfet_g5v0d10v5__model l=5e-07 w=8.4e-07
Mnmos[0] vss _i_n q vss sky130_fd_pr__nfet_g5v0d10v5__model l=5e-07 w=1.225e-06
Mpmos[0] vdd _i_n q vdd sky130_fd_pr__pfet_g5v0d10v5__model l=5e-07 w=1.525e-06
Mnmos[1] q _i_n vss vss sky130_fd_pr__nfet_g5v0d10v5__model l=5e-07 w=1.225e-06
Mpmos[1] q _i_n vdd vdd sky130_fd_pr__pfet_g5v0d10v5__model l=5e-07 w=1.525e-06
.ends buf_x2

.subckt buf_x4 vdd vss i q
Mstage0_nmos _i_n i vss vss sky130_fd_pr__nfet_g5v0d10v5__model l=5e-07 w=1.225e-06
Mstage0_pmos _i_n i vdd vdd sky130_fd_pr__pfet_g5v0d10v5__model l=5e-07 w=1.525e-06
Mnmos[0] vss _i_n q vss sky130_fd_pr__nfet_g5v0d10v5__model l=5e-07 w=1.225e-06
Mpmos[0] vdd _i_n q vdd sky130_fd_pr__pfet_g5v0d10v5__model l=5e-07 w=1.525e-06
Mnmos[1] q _i_n vss vss sky130_fd_pr__nfet_g5v0d10v5__model l=5e-07 w=1.225e-06
Mpmos[1] q _i_n vdd vdd sky130_fd_pr__pfet_g5v0d10v5__model l=5e-07 w=1.525e-06
Mnmos[2] vss _i_n q vss sky130_fd_pr__nfet_g5v0d10v5__model l=5e-07 w=1.225e-06
Mpmos[2] vdd _i_n q vdd sky130_fd_pr__pfet_g5v0d10v5__model l=5e-07 w=1.525e-06
Mnmos[3] q _i_n vss vss sky130_fd_pr__nfet_g5v0d10v5__model l=5e-07 w=1.225e-06
Mpmos[3] q _i_n vdd vdd sky130_fd_pr__pfet_g5v0d10v5__model l=5e-07 w=1.525e-06
.ends buf_x4

.subckt nand2_x0 vdd vss nq i0 i1
Mi0_nmos vss i0 _net0 vss sky130_fd_pr__nfet_g5v0d10v5__model l=5e-07 w=8.4e-07
Mi0_pmos vdd i0 nq vdd sky130_fd_pr__pfet_g5v0d10v5__model l=5e-07 w=8.4e-07
Mi1_nmos _net0 i1 nq vss sky130_fd_pr__nfet_g5v0d10v5__model l=5e-07 w=8.4e-07
Mi1_pmos nq i1 vdd vdd sky130_fd_pr__pfet_g5v0d10v5__model l=5e-07 w=8.4e-07
.ends nand2_x0

.subckt nand2_x1 vdd vss nq i0 i1
Mi0_nmos vss i0 _net0 vss sky130_fd_pr__nfet_g5v0d10v5__model l=5e-07 w=1.66e-06
Mi0_pmos vdd i0 nq vdd sky130_fd_pr__pfet_g5v0d10v5__model l=5e-07 w=1.96e-06
Mi1_nmos _net0 i1 nq vss sky130_fd_pr__nfet_g5v0d10v5__model l=5e-07 w=1.66e-06
Mi1_pmos nq i1 vdd vdd sky130_fd_pr__pfet_g5v0d10v5__model l=5e-07 w=1.96e-06
.ends nand2_x1

.subckt nand3_x0 vdd vss nq i0 i1 i2
Mi0_nmos vss i0 _net0 vss sky130_fd_pr__nfet_g5v0d10v5__model l=5e-07 w=8.4e-07
Mi0_pmos vdd i0 nq vdd sky130_fd_pr__pfet_g5v0d10v5__model l=5e-07 w=8.4e-07
Mi1_nmos _net0 i1 _net1 vss sky130_fd_pr__nfet_g5v0d10v5__model l=5e-07 w=8.4e-07
Mi1_pmos nq i1 vdd vdd sky130_fd_pr__pfet_g5v0d10v5__model l=5e-07 w=8.4e-07
Mi2_nmos _net1 i2 nq vss sky130_fd_pr__nfet_g5v0d10v5__model l=5e-07 w=8.4e-07
Mi2_pmos vdd i2 nq vdd sky130_fd_pr__pfet_g5v0d10v5__model l=5e-07 w=8.4e-07
.ends nand3_x0

.subckt nand3_x1 vdd vss nq i0 i1 i2
Mi0_nmos vss i0 _net0 vss sky130_fd_pr__nfet_g5v0d10v5__model l=5e-07 w=1.66e-06
Mi0_pmos vdd i0 nq vdd sky130_fd_pr__pfet_g5v0d10v5__model l=5e-07 w=1.96e-06
Mi1_nmos _net0 i1 _net1 vss sky130_fd_pr__nfet_g5v0d10v5__model l=5e-07 w=1.66e-06
Mi1_pmos nq i1 vdd vdd sky130_fd_pr__pfet_g5v0d10v5__model l=5e-07 w=1.96e-06
Mi2_nmos _net1 i2 nq vss sky130_fd_pr__nfet_g5v0d10v5__model l=5e-07 w=1.66e-06
Mi2_pmos vdd i2 nq vdd sky130_fd_pr__pfet_g5v0d10v5__model l=5e-07 w=1.96e-06
.ends nand3_x1

.subckt nand4_x0 vdd vss nq i0 i1 i2 i3
Mi0_nmos vss i0 _net0 vss sky130_fd_pr__nfet_g5v0d10v5__model l=5e-07 w=8.4e-07
Mi0_pmos vdd i0 nq vdd sky130_fd_pr__pfet_g5v0d10v5__model l=5e-07 w=8.4e-07
Mi1_nmos _net0 i1 _net1 vss sky130_fd_pr__nfet_g5v0d10v5__model l=5e-07 w=8.4e-07
Mi1_pmos nq i1 vdd vdd sky130_fd_pr__pfet_g5v0d10v5__model l=5e-07 w=8.4e-07
Mi2_nmos _net1 i2 _net2 vss sky130_fd_pr__nfet_g5v0d10v5__model l=5e-07 w=8.4e-07
Mi2_pmos vdd i2 nq vdd sky130_fd_pr__pfet_g5v0d10v5__model l=5e-07 w=8.4e-07
Mi3_nmos _net2 i3 nq vss sky130_fd_pr__nfet_g5v0d10v5__model l=5e-07 w=8.4e-07
Mi3_pmos nq i3 vdd vdd sky130_fd_pr__pfet_g5v0d10v5__model l=5e-07 w=8.4e-07
.ends nand4_x0

.subckt nand4_x1 vdd vss nq i0 i1 i2 i3
Mi0_nmos vss i0 _net0 vss sky130_fd_pr__nfet_g5v0d10v5__model l=5e-07 w=1.66e-06
Mi0_pmos vdd i0 nq vdd sky130_fd_pr__pfet_g5v0d10v5__model l=5e-07 w=1.96e-06
Mi1_nmos _net0 i1 _net1 vss sky130_fd_pr__nfet_g5v0d10v5__model l=5e-07 w=1.66e-06
Mi1_pmos nq i1 vdd vdd sky130_fd_pr__pfet_g5v0d10v5__model l=5e-07 w=1.96e-06
Mi2_nmos _net1 i2 _net2 vss sky130_fd_pr__nfet_g5v0d10v5__model l=5e-07 w=1.66e-06
Mi2_pmos vdd i2 nq vdd sky130_fd_pr__pfet_g5v0d10v5__model l=5e-07 w=1.96e-06
Mi3_nmos _net2 i3 nq vss sky130_fd_pr__nfet_g5v0d10v5__model l=5e-07 w=1.66e-06
Mi3_pmos nq i3 vdd vdd sky130_fd_pr__pfet_g5v0d10v5__model l=5e-07 w=1.96e-06
.ends nand4_x1

.subckt and2_x1 vdd vss q i0 i1
Mi0_nmos nq i0 _net0 vss sky130_fd_pr__nfet_g5v0d10v5__model l=5e-07 w=8.4e-07
Mi0_pmos vdd i0 nq vdd sky130_fd_pr__pfet_g5v0d10v5__model l=5e-07 w=8.4e-07
Mi1_nmos _net0 i1 vss vss sky130_fd_pr__nfet_g5v0d10v5__model l=5e-07 w=8.4e-07
Mi1_pmos nq i1 vdd vdd sky130_fd_pr__pfet_g5v0d10v5__model l=5e-07 w=8.4e-07
Mn_pd vss nq q vss sky130_fd_pr__nfet_g5v0d10v5__model l=5e-07 w=1.66e-06
Mq_pu vdd nq q vdd sky130_fd_pr__pfet_g5v0d10v5__model l=5e-07 w=1.96e-06
.ends and2_x1

.subckt and3_x1 vdd vss q i0 i1 i2
Mi0_nmos nq i0 _net0 vss sky130_fd_pr__nfet_g5v0d10v5__model l=5e-07 w=8.4e-07
Mi0_pmos nq i0 vdd vdd sky130_fd_pr__pfet_g5v0d10v5__model l=5e-07 w=8.4e-07
Mi1_nmos _net0 i1 _net1 vss sky130_fd_pr__nfet_g5v0d10v5__model l=5e-07 w=8.4e-07
Mi1_pmos vdd i1 nq vdd sky130_fd_pr__pfet_g5v0d10v5__model l=5e-07 w=8.4e-07
Mi2_nmos _net1 i2 vss vss sky130_fd_pr__nfet_g5v0d10v5__model l=5e-07 w=8.4e-07
Mi2_pmos nq i2 vdd vdd sky130_fd_pr__pfet_g5v0d10v5__model l=5e-07 w=8.4e-07
Mn_pd vss nq q vss sky130_fd_pr__nfet_g5v0d10v5__model l=5e-07 w=1.66e-06
Mq_pu vdd nq q vdd sky130_fd_pr__pfet_g5v0d10v5__model l=5e-07 w=1.96e-06
.ends and3_x1

.subckt and4_x1 vdd vss q i0 i1 i2 i3
Mi0_nmos nq i0 _net0 vss sky130_fd_pr__nfet_g5v0d10v5__model l=5e-07 w=8.4e-07
Mi0_pmos vdd i0 nq vdd sky130_fd_pr__pfet_g5v0d10v5__model l=5e-07 w=8.4e-07
Mi1_nmos _net0 i1 _net1 vss sky130_fd_pr__nfet_g5v0d10v5__model l=5e-07 w=8.4e-07
Mi1_pmos nq i1 vdd vdd sky130_fd_pr__pfet_g5v0d10v5__model l=5e-07 w=8.4e-07
Mi2_nmos _net1 i2 _net2 vss sky130_fd_pr__nfet_g5v0d10v5__model l=5e-07 w=8.4e-07
Mi2_pmos vdd i2 nq vdd sky130_fd_pr__pfet_g5v0d10v5__model l=5e-07 w=8.4e-07
Mi3_nmos _net2 i3 vss vss sky130_fd_pr__nfet_g5v0d10v5__model l=5e-07 w=8.4e-07
Mi3_pmos nq i3 vdd vdd sky130_fd_pr__pfet_g5v0d10v5__model l=5e-07 w=8.4e-07
Mn_pd vss nq q vss sky130_fd_pr__nfet_g5v0d10v5__model l=5e-07 w=1.66e-06
Mq_pu vdd nq q vdd sky130_fd_pr__pfet_g5v0d10v5__model l=5e-07 w=1.96e-06
.ends and4_x1

.subckt nor2_x0 vdd vss nq i0 i1
Mi0_nmos vss i0 nq vss sky130_fd_pr__nfet_g5v0d10v5__model l=5e-07 w=8.4e-07
Mi0_pmos vdd i0 _net0 vdd sky130_fd_pr__pfet_g5v0d10v5__model l=5e-07 w=8.4e-07
Mi1_nmos nq i1 vss vss sky130_fd_pr__nfet_g5v0d10v5__model l=5e-07 w=8.4e-07
Mi1_pmos _net0 i1 nq vdd sky130_fd_pr__pfet_g5v0d10v5__model l=5e-07 w=8.4e-07
.ends nor2_x0

.subckt nor2_x1 vdd vss nq i0 i1
Mi0_nmos vss i0 nq vss sky130_fd_pr__nfet_g5v0d10v5__model l=5e-07 w=1.66e-06
Mi0_pmos vdd i0 _net0 vdd sky130_fd_pr__pfet_g5v0d10v5__model l=5e-07 w=1.96e-06
Mi1_nmos nq i1 vss vss sky130_fd_pr__nfet_g5v0d10v5__model l=5e-07 w=1.66e-06
Mi1_pmos _net0 i1 nq vdd sky130_fd_pr__pfet_g5v0d10v5__model l=5e-07 w=1.96e-06
.ends nor2_x1

.subckt nor3_x0 vdd vss nq i0 i1 i2
Mi0_nmos vss i0 nq vss sky130_fd_pr__nfet_g5v0d10v5__model l=5e-07 w=8.4e-07
Mi0_pmos vdd i0 _net0 vdd sky130_fd_pr__pfet_g5v0d10v5__model l=5e-07 w=8.4e-07
Mi1_nmos nq i1 vss vss sky130_fd_pr__nfet_g5v0d10v5__model l=5e-07 w=8.4e-07
Mi1_pmos _net0 i1 _net1 vdd sky130_fd_pr__pfet_g5v0d10v5__model l=5e-07 w=8.4e-07
Mi2_nmos vss i2 nq vss sky130_fd_pr__nfet_g5v0d10v5__model l=5e-07 w=8.4e-07
Mi2_pmos _net1 i2 nq vdd sky130_fd_pr__pfet_g5v0d10v5__model l=5e-07 w=8.4e-07
.ends nor3_x0

.subckt nor3_x1 vdd vss nq i0 i1 i2
Mi0_nmos vss i0 nq vss sky130_fd_pr__nfet_g5v0d10v5__model l=5e-07 w=1.66e-06
Mi0_pmos vdd i0 _net0 vdd sky130_fd_pr__pfet_g5v0d10v5__model l=5e-07 w=1.96e-06
Mi1_nmos nq i1 vss vss sky130_fd_pr__nfet_g5v0d10v5__model l=5e-07 w=1.66e-06
Mi1_pmos _net0 i1 _net1 vdd sky130_fd_pr__pfet_g5v0d10v5__model l=5e-07 w=1.96e-06
Mi2_nmos vss i2 nq vss sky130_fd_pr__nfet_g5v0d10v5__model l=5e-07 w=1.66e-06
Mi2_pmos _net1 i2 nq vdd sky130_fd_pr__pfet_g5v0d10v5__model l=5e-07 w=1.96e-06
.ends nor3_x1

.subckt nor4_x0 vdd vss nq i0 i1 i2 i3
Mi0_nmos vss i0 nq vss sky130_fd_pr__nfet_g5v0d10v5__model l=5e-07 w=8.4e-07
Mi0_pmos vdd i0 _net0 vdd sky130_fd_pr__pfet_g5v0d10v5__model l=5e-07 w=8.4e-07
Mi1_nmos nq i1 vss vss sky130_fd_pr__nfet_g5v0d10v5__model l=5e-07 w=8.4e-07
Mi1_pmos _net0 i1 _net1 vdd sky130_fd_pr__pfet_g5v0d10v5__model l=5e-07 w=8.4e-07
Mi2_nmos vss i2 nq vss sky130_fd_pr__nfet_g5v0d10v5__model l=5e-07 w=8.4e-07
Mi2_pmos _net1 i2 _net2 vdd sky130_fd_pr__pfet_g5v0d10v5__model l=5e-07 w=8.4e-07
Mi3_nmos nq i3 vss vss sky130_fd_pr__nfet_g5v0d10v5__model l=5e-07 w=8.4e-07
Mi3_pmos _net2 i3 nq vdd sky130_fd_pr__pfet_g5v0d10v5__model l=5e-07 w=8.4e-07
.ends nor4_x0

.subckt nor4_x1 vdd vss nq i0 i1 i2 i3
Mi0_nmos vss i0 nq vss sky130_fd_pr__nfet_g5v0d10v5__model l=5e-07 w=1.66e-06
Mi0_pmos vdd i0 _net0 vdd sky130_fd_pr__pfet_g5v0d10v5__model l=5e-07 w=1.96e-06
Mi1_nmos nq i1 vss vss sky130_fd_pr__nfet_g5v0d10v5__model l=5e-07 w=1.66e-06
Mi1_pmos _net0 i1 _net1 vdd sky130_fd_pr__pfet_g5v0d10v5__model l=5e-07 w=1.96e-06
Mi2_nmos vss i2 nq vss sky130_fd_pr__nfet_g5v0d10v5__model l=5e-07 w=1.66e-06
Mi2_pmos _net1 i2 _net2 vdd sky130_fd_pr__pfet_g5v0d10v5__model l=5e-07 w=1.96e-06
Mi3_nmos nq i3 vss vss sky130_fd_pr__nfet_g5v0d10v5__model l=5e-07 w=1.66e-06
Mi3_pmos _net2 i3 nq vdd sky130_fd_pr__pfet_g5v0d10v5__model l=5e-07 w=1.96e-06
.ends nor4_x1

.subckt or2_x1 vdd vss q i0 i1
Mi0_nmos vss i0 nq vss sky130_fd_pr__nfet_g5v0d10v5__model l=5e-07 w=8.4e-07
Mi0_pmos nq i0 _net0 vdd sky130_fd_pr__pfet_g5v0d10v5__model l=5e-07 w=8.4e-07
Mi1_nmos nq i1 vss vss sky130_fd_pr__nfet_g5v0d10v5__model l=5e-07 w=8.4e-07
Mi1_pmos _net0 i1 vdd vdd sky130_fd_pr__pfet_g5v0d10v5__model l=5e-07 w=8.4e-07
Mn_pd vss nq q vss sky130_fd_pr__nfet_g5v0d10v5__model l=5e-07 w=1.66e-06
Mq_pu vdd nq q vdd sky130_fd_pr__pfet_g5v0d10v5__model l=5e-07 w=1.96e-06
.ends or2_x1

.subckt or3_x1 vdd vss q i0 i1 i2
Mi0_nmos nq i0 vss vss sky130_fd_pr__nfet_g5v0d10v5__model l=5e-07 w=8.4e-07
Mi0_pmos nq i0 _net0 vdd sky130_fd_pr__pfet_g5v0d10v5__model l=5e-07 w=8.4e-07
Mi1_nmos vss i1 nq vss sky130_fd_pr__nfet_g5v0d10v5__model l=5e-07 w=8.4e-07
Mi1_pmos _net0 i1 _net1 vdd sky130_fd_pr__pfet_g5v0d10v5__model l=5e-07 w=8.4e-07
Mi2_nmos nq i2 vss vss sky130_fd_pr__nfet_g5v0d10v5__model l=5e-07 w=8.4e-07
Mi2_pmos _net1 i2 vdd vdd sky130_fd_pr__pfet_g5v0d10v5__model l=5e-07 w=8.4e-07
Mn_pd vss nq q vss sky130_fd_pr__nfet_g5v0d10v5__model l=5e-07 w=1.66e-06
Mq_pu vdd nq q vdd sky130_fd_pr__pfet_g5v0d10v5__model l=5e-07 w=1.96e-06
.ends or3_x1

.subckt or4_x1 vdd vss q i0 i1 i2 i3
Mi0_nmos vss i0 nq vss sky130_fd_pr__nfet_g5v0d10v5__model l=5e-07 w=8.4e-07
Mi0_pmos nq i0 _net0 vdd sky130_fd_pr__pfet_g5v0d10v5__model l=5e-07 w=8.4e-07
Mi1_nmos nq i1 vss vss sky130_fd_pr__nfet_g5v0d10v5__model l=5e-07 w=8.4e-07
Mi1_pmos _net0 i1 _net1 vdd sky130_fd_pr__pfet_g5v0d10v5__model l=5e-07 w=8.4e-07
Mi2_nmos vss i2 nq vss sky130_fd_pr__nfet_g5v0d10v5__model l=5e-07 w=8.4e-07
Mi2_pmos _net1 i2 _net2 vdd sky130_fd_pr__pfet_g5v0d10v5__model l=5e-07 w=8.4e-07
Mi3_nmos nq i3 vss vss sky130_fd_pr__nfet_g5v0d10v5__model l=5e-07 w=8.4e-07
Mi3_pmos _net2 i3 vdd vdd sky130_fd_pr__pfet_g5v0d10v5__model l=5e-07 w=8.4e-07
Mn_pd vss nq q vss sky130_fd_pr__nfet_g5v0d10v5__model l=5e-07 w=1.66e-06
Mq_pu vdd nq q vdd sky130_fd_pr__pfet_g5v0d10v5__model l=5e-07 w=1.96e-06
.ends or4_x1

.subckt mux2_x1 vdd vss i0 i1 cmd q
Mcmd_inv_nmos cmd_n cmd vss vss sky130_fd_pr__nfet_g5v0d10v5__model l=5e-07 w=8.4e-07
Mcmd_inv_pmos cmd_n cmd vdd vdd sky130_fd_pr__pfet_g5v0d10v5__model l=5e-07 w=8.4e-07
Mi0_nmos vss i0 _net0 vss sky130_fd_pr__nfet_g5v0d10v5__model l=5e-07 w=8.4e-07
Mi0_pmos vdd i0 _net1 vdd sky130_fd_pr__pfet_g5v0d10v5__model l=5e-07 w=8.4e-07
Mcmd_n_npass _net0 cmd_n _q_n vss sky130_fd_pr__nfet_g5v0d10v5__model l=5e-07 w=8.4e-07
Mcmd_ppass _net1 cmd _q_n vdd sky130_fd_pr__pfet_g5v0d10v5__model l=5e-07 w=8.4e-07
Mcmd_npass _q_n cmd _net2 vss sky130_fd_pr__nfet_g5v0d10v5__model l=5e-07 w=8.4e-07
Mcmd_n_ppass _q_n cmd_n _net3 vdd sky130_fd_pr__pfet_g5v0d10v5__model l=5e-07 w=8.4e-07
Mi1_nmos _net2 i1 vss vss sky130_fd_pr__nfet_g5v0d10v5__model l=5e-07 w=8.4e-07
Mi1_pmos _net3 i1 vdd vdd sky130_fd_pr__pfet_g5v0d10v5__model l=5e-07 w=8.4e-07
Mq_n_inv_nmos vss _q_n q vss sky130_fd_pr__nfet_g5v0d10v5__model l=5e-07 w=1.225e-06
Mq_n_inv_pmos vdd _q_n q vdd sky130_fd_pr__pfet_g5v0d10v5__model l=5e-07 w=1.525e-06
.ends mux2_x1

.subckt and21nor_x0 vdd vss nq i0 i1 i2
Mi0_nmos vss i0 _net1 vss sky130_fd_pr__nfet_g5v0d10v5__model l=5e-07 w=8.4e-07
Mi0_pmos _net0 i0 vdd vdd sky130_fd_pr__pfet_g5v0d10v5__model l=5e-07 w=8.4e-07
Mi1_nmos _net1 i1 nq vss sky130_fd_pr__nfet_g5v0d10v5__model l=5e-07 w=8.4e-07
Mi1_pmos vdd i1 _net0 vdd sky130_fd_pr__pfet_g5v0d10v5__model l=5e-07 w=8.4e-07
Mi2_nmos nq i2 vss vss sky130_fd_pr__nfet_g5v0d10v5__model l=5e-07 w=8.4e-07
Mi2_pmos _net0 i2 nq vdd sky130_fd_pr__pfet_g5v0d10v5__model l=5e-07 w=8.4e-07
.ends and21nor_x0

.subckt and21nor_x1 vdd vss nq i0 i1 i2
Mi0_nmos vss i0 _net1 vss sky130_fd_pr__nfet_g5v0d10v5__model l=5e-07 w=1.66e-06
Mi0_pmos _net0 i0 vdd vdd sky130_fd_pr__pfet_g5v0d10v5__model l=5e-07 w=1.96e-06
Mi1_nmos _net1 i1 nq vss sky130_fd_pr__nfet_g5v0d10v5__model l=5e-07 w=1.66e-06
Mi1_pmos vdd i1 _net0 vdd sky130_fd_pr__pfet_g5v0d10v5__model l=5e-07 w=1.96e-06
Mi2_nmos nq i2 vss vss sky130_fd_pr__nfet_g5v0d10v5__model l=5e-07 w=1.66e-06
Mi2_pmos _net0 i2 nq vdd sky130_fd_pr__pfet_g5v0d10v5__model l=5e-07 w=1.96e-06
.ends and21nor_x1

.subckt or21nand_x0 vdd vss nq i0 i1 i2
Mi0_nmos _net0 i0 vss vss sky130_fd_pr__nfet_g5v0d10v5__model l=5e-07 w=8.4e-07
Mi0_pmos vdd i0 _net1 vdd sky130_fd_pr__pfet_g5v0d10v5__model l=5e-07 w=8.4e-07
Mi1_nmos vss i1 _net0 vss sky130_fd_pr__nfet_g5v0d10v5__model l=5e-07 w=8.4e-07
Mi1_pmos _net1 i1 nq vdd sky130_fd_pr__pfet_g5v0d10v5__model l=5e-07 w=8.4e-07
Mi2_nmos _net0 i2 nq vss sky130_fd_pr__nfet_g5v0d10v5__model l=5e-07 w=8.4e-07
Mi2_pmos nq i2 vdd vdd sky130_fd_pr__pfet_g5v0d10v5__model l=5e-07 w=8.4e-07
.ends or21nand_x0

.subckt or21nand_x1 vdd vss nq i0 i1 i2
Mi0_nmos _net0 i0 vss vss sky130_fd_pr__nfet_g5v0d10v5__model l=5e-07 w=1.66e-06
Mi0_pmos vdd i0 _net1 vdd sky130_fd_pr__pfet_g5v0d10v5__model l=5e-07 w=1.96e-06
Mi1_nmos vss i1 _net0 vss sky130_fd_pr__nfet_g5v0d10v5__model l=5e-07 w=1.66e-06
Mi1_pmos _net1 i1 nq vdd sky130_fd_pr__pfet_g5v0d10v5__model l=5e-07 w=1.96e-06
Mi2_nmos _net0 i2 nq vss sky130_fd_pr__nfet_g5v0d10v5__model l=5e-07 w=1.66e-06
Mi2_pmos nq i2 vdd vdd sky130_fd_pr__pfet_g5v0d10v5__model l=5e-07 w=1.96e-06
.ends or21nand_x1

.subckt xor2_x0 vdd vss i0 i1 q
Mi0_nmos0 i0_n i0 vss vss sky130_fd_pr__nfet_g5v0d10v5__model l=5e-07 w=8.4e-07
Mi0_pmos0 i0_n i0 vdd vdd sky130_fd_pr__pfet_g5v0d10v5__model l=5e-07 w=8.4e-07
Mi0_nmos1 vss i0 _net0 vss sky130_fd_pr__nfet_g5v0d10v5__model l=5e-07 w=8.4e-07
Mi0_pmos1 vdd i0 _net1 vdd sky130_fd_pr__pfet_g5v0d10v5__model l=5e-07 w=8.4e-07
Mi1_nmos0 _net0 i1 q vss sky130_fd_pr__nfet_g5v0d10v5__model l=5e-07 w=8.4e-07
Mi1_n_pmos _net1 i1_n q vdd sky130_fd_pr__pfet_g5v0d10v5__model l=5e-07 w=8.4e-07
Mi0_n_nmos q i0_n _net2 vss sky130_fd_pr__nfet_g5v0d10v5__model l=5e-07 w=8.4e-07
Mi0_n_pmos q i0_n _net1 vdd sky130_fd_pr__pfet_g5v0d10v5__model l=5e-07 w=8.4e-07
Mi1_n_nmos _net2 i1_n vss vss sky130_fd_pr__nfet_g5v0d10v5__model l=5e-07 w=8.4e-07
Mi1_pmos0 _net1 i1 vdd vdd sky130_fd_pr__pfet_g5v0d10v5__model l=5e-07 w=8.4e-07
Mi1_nmos1 vss i1 i1_n vss sky130_fd_pr__nfet_g5v0d10v5__model l=5e-07 w=8.4e-07
Mi1_pmos1 vdd i1 i1_n vdd sky130_fd_pr__pfet_g5v0d10v5__model l=5e-07 w=8.4e-07
.ends xor2_x0

.subckt nexor2_x0 vdd vss i0 i1 nq
Mi0_nmos0 i0_n i0 vss vss sky130_fd_pr__nfet_g5v0d10v5__model l=5e-07 w=8.4e-07
Mi0_pmos0 i0_n i0 vdd vdd sky130_fd_pr__pfet_g5v0d10v5__model l=5e-07 w=8.4e-07
Mi0_nmos1 vss i0 _net0 vss sky130_fd_pr__nfet_g5v0d10v5__model l=5e-07 w=8.4e-07
Mi0_pmos1 vdd i0 _net1 vdd sky130_fd_pr__pfet_g5v0d10v5__model l=5e-07 w=8.4e-07
Mi1_n_nmos _net0 i1_n nq vss sky130_fd_pr__nfet_g5v0d10v5__model l=5e-07 w=8.4e-07
Mi1_pmos0 _net1 i1 nq vdd sky130_fd_pr__pfet_g5v0d10v5__model l=5e-07 w=8.4e-07
Mi0_n_nmos nq i0_n _net2 vss sky130_fd_pr__nfet_g5v0d10v5__model l=5e-07 w=8.4e-07
Mi0_n_pmos nq i0_n _net1 vdd sky130_fd_pr__pfet_g5v0d10v5__model l=5e-07 w=8.4e-07
Mi1_nmos0 _net2 i1 vss vss sky130_fd_pr__nfet_g5v0d10v5__model l=5e-07 w=8.4e-07
Mi1_n_pmos _net1 i1_n vdd vdd sky130_fd_pr__pfet_g5v0d10v5__model l=5e-07 w=8.4e-07
Mi1_nmos1 vss i1 i1_n vss sky130_fd_pr__nfet_g5v0d10v5__model l=5e-07 w=8.4e-07
Mi1_pmos1 vdd i1 i1_n vdd sky130_fd_pr__pfet_g5v0d10v5__model l=5e-07 w=8.4e-07
.ends nexor2_x0

.subckt nsnrlatch_x0 vdd vss nset nrst q nq
Mnset_nmos q nset _net0 vss sky130_fd_pr__nfet_g5v0d10v5__model l=5e-07 w=8.4e-07
Mnset_pmos vdd nset q vdd sky130_fd_pr__pfet_g5v0d10v5__model l=5e-07 w=8.4e-07
Mnq_nmos _net0 nq vss vss sky130_fd_pr__nfet_g5v0d10v5__model l=5e-07 w=8.4e-07
Mnq_pmos q nq vdd vdd sky130_fd_pr__pfet_g5v0d10v5__model l=5e-07 w=8.4e-07
Mq_nmos vss q _net1 vss sky130_fd_pr__nfet_g5v0d10v5__model l=5e-07 w=8.4e-07
Mq_pmos vdd q nq vdd sky130_fd_pr__pfet_g5v0d10v5__model l=5e-07 w=8.4e-07
Mnrst_nmos _net1 nrst nq vss sky130_fd_pr__nfet_g5v0d10v5__model l=5e-07 w=8.4e-07
Mnrst_pmos nq nrst vdd vdd sky130_fd_pr__pfet_g5v0d10v5__model l=5e-07 w=8.4e-07
.ends nsnrlatch_x0

.subckt nsnrlatch_x1 vdd vss nset nrst q nq
Mnset_nmos q nset _net0 vss sky130_fd_pr__nfet_g5v0d10v5__model l=5e-07 w=1.495e-06
Mnset_pmos vdd nset q vdd sky130_fd_pr__pfet_g5v0d10v5__model l=5e-07 w=1.795e-06
Mnq_nmos _net0 nq vss vss sky130_fd_pr__nfet_g5v0d10v5__model l=5e-07 w=1.495e-06
Mnq_pmos q nq vdd vdd sky130_fd_pr__pfet_g5v0d10v5__model l=5e-07 w=1.795e-06
Mq_nmos vss q _net1 vss sky130_fd_pr__nfet_g5v0d10v5__model l=5e-07 w=1.495e-06
Mq_pmos vdd q nq vdd sky130_fd_pr__pfet_g5v0d10v5__model l=5e-07 w=1.795e-06
Mnrst_nmos _net1 nrst nq vss sky130_fd_pr__nfet_g5v0d10v5__model l=5e-07 w=1.495e-06
Mnrst_pmos nq nrst vdd vdd sky130_fd_pr__pfet_g5v0d10v5__model l=5e-07 w=1.795e-06
.ends nsnrlatch_x1

.subckt dff_x1 vdd vss i clk q
Mclk_nmos _clk_n clk vss vss sky130_fd_pr__nfet_g5v0d10v5__model l=5e-07 w=8.4e-07
Mclk_pmos _clk_n clk vdd vdd sky130_fd_pr__pfet_g5v0d10v5__model l=5e-07 w=8.4e-07
Mclk_n_nmos0 vss _clk_n _clk_buf vss sky130_fd_pr__nfet_g5v0d10v5__model l=5e-07 w=8.4e-07
Mclk_n_pmos0 vdd _clk_n _clk_buf vdd sky130_fd_pr__pfet_g5v0d10v5__model l=5e-07 w=8.4e-07
Mi_nmos _u i vss vss sky130_fd_pr__nfet_g5v0d10v5__model l=5e-07 w=8.4e-07
Mi_pmos _u i vdd vdd sky130_fd_pr__pfet_g5v0d10v5__model l=5e-07 w=8.4e-07
Mu_nmos vss _u _net0 vss sky130_fd_pr__nfet_g5v0d10v5__model l=5e-07 w=8.4e-07
Mu_pmos vdd _u _net1 vdd sky130_fd_pr__pfet_g5v0d10v5__model l=5e-07 w=8.4e-07
Mclk_n_nmos1 _net0 _clk_n _dff_m vss sky130_fd_pr__nfet_g5v0d10v5__model l=5e-07 w=8.4e-07
Mclk_buf_pmos0 _net1 _clk_buf _dff_m vdd sky130_fd_pr__pfet_g5v0d10v5__model l=5e-07 w=8.4e-07
Mclk_buf_nmos0 _dff_m _clk_buf _net2 vss sky130_fd_pr__nfet_g5v0d10v5__model l=5e-07 w=8.4e-07
Mclk_n_pmos1 _dff_m _clk_n _net3 vdd sky130_fd_pr__pfet_g5v0d10v5__model l=5e-07 w=8.4e-07
My_nmos _net2 _y vss vss sky130_fd_pr__nfet_g5v0d10v5__model l=5e-07 w=8.4e-07
My_pmos _net3 _y vdd vdd sky130_fd_pr__pfet_g5v0d10v5__model l=5e-07 w=8.4e-07
Mdff_m_nmos vss _dff_m _y vss sky130_fd_pr__nfet_g5v0d10v5__model l=5e-07 w=8.4e-07
Mdff_m_pmos vdd _dff_m _y vdd sky130_fd_pr__pfet_g5v0d10v5__model l=5e-07 w=8.4e-07
Mclk_buf_nmos1 _y _clk_buf _dff_s vss sky130_fd_pr__nfet_g5v0d10v5__model l=5e-07 w=8.4e-07
Mclk_n_pmos2 _y _clk_n _dff_s vdd sky130_fd_pr__pfet_g5v0d10v5__model l=5e-07 w=8.4e-07
Mclk_n_nmos2 _dff_s _clk_n _net4 vss sky130_fd_pr__nfet_g5v0d10v5__model l=5e-07 w=8.4e-07
Mclk_buf_pmos1 _dff_s _clk_buf _net5 vdd sky130_fd_pr__pfet_g5v0d10v5__model l=5e-07 w=8.4e-07
Mq_nmos _net4 q vss vss sky130_fd_pr__nfet_g5v0d10v5__model l=5e-07 w=8.4e-07
Mq_pmos _net5 q vdd vdd sky130_fd_pr__pfet_g5v0d10v5__model l=5e-07 w=8.4e-07
Mdff_s_nmos vss _dff_s q vss sky130_fd_pr__nfet_g5v0d10v5__model l=5e-07 w=9.55e-07
Mdff_s_pmos vdd _dff_s q vdd sky130_fd_pr__pfet_g5v0d10v5__model l=5e-07 w=1.255e-06
.ends dff_x1

.subckt dffnr_x1 vdd vss i clk q nrst
Mclk_nmos _clk_n clk vss vss sky130_fd_pr__nfet_g5v0d10v5__model l=5e-07 w=8.4e-07
Mclk_pmos _clk_n clk vdd vdd sky130_fd_pr__pfet_g5v0d10v5__model l=5e-07 w=8.4e-07
Mclk_n_nmos0 vss _clk_n _clk_buf vss sky130_fd_pr__nfet_g5v0d10v5__model l=5e-07 w=8.4e-07
Mclk_n_pmos0 vdd _clk_n _clk_buf vdd sky130_fd_pr__pfet_g5v0d10v5__model l=5e-07 w=8.4e-07
Mi_nmos _u i vss vss sky130_fd_pr__nfet_g5v0d10v5__model l=5e-07 w=8.4e-07
Mi_pmos _u i vdd vdd sky130_fd_pr__pfet_g5v0d10v5__model l=5e-07 w=8.4e-07
Mu_nmos vss _u _net0 vss sky130_fd_pr__nfet_g5v0d10v5__model l=5e-07 w=8.4e-07
Mu_pmos vdd _u _net1 vdd sky130_fd_pr__pfet_g5v0d10v5__model l=5e-07 w=8.4e-07
Mclk_n_nmos1 _net0 _clk_n _dff_m vss sky130_fd_pr__nfet_g5v0d10v5__model l=5e-07 w=8.4e-07
Mclk_buf_pmos0 _net1 _clk_buf _dff_m vdd sky130_fd_pr__pfet_g5v0d10v5__model l=5e-07 w=8.4e-07
Mclk_buf_nmos0 _dff_m _clk_buf _net2 vss sky130_fd_pr__nfet_g5v0d10v5__model l=5e-07 w=8.4e-07
Mclk_n_pmos1 _dff_m _clk_n _net3 vdd sky130_fd_pr__pfet_g5v0d10v5__model l=5e-07 w=8.4e-07
My_nmos _net2 _y vss vss sky130_fd_pr__nfet_g5v0d10v5__model l=5e-07 w=8.4e-07
My_pmos _net3 _y vdd vdd sky130_fd_pr__pfet_g5v0d10v5__model l=5e-07 w=8.4e-07
Mdff_m_nmos vss _dff_m _net6 vss sky130_fd_pr__nfet_g5v0d10v5__model l=5e-07 w=8.4e-07
Mdff_m_pmos vdd _dff_m _y vdd sky130_fd_pr__pfet_g5v0d10v5__model l=5e-07 w=8.4e-07
Mnrst_nmos0 _net6 nrst _y vss sky130_fd_pr__nfet_g5v0d10v5__model l=5e-07 w=8.4e-07
Mnrst_pmos0 _y nrst vdd vdd sky130_fd_pr__pfet_g5v0d10v5__model l=5e-07 w=8.4e-07
Mnrst_pmos1 vdd nrst _net5 vdd sky130_fd_pr__pfet_g5v0d10v5__model l=5e-07 w=8.4e-07
Mclk_buf_nmos1 _y _clk_buf _dff_s vss sky130_fd_pr__nfet_g5v0d10v5__model l=5e-07 w=8.4e-07
Mclk_n_nmos2 _dff_s _clk_n _net7 vss sky130_fd_pr__nfet_g5v0d10v5__model l=5e-07 w=8.4e-07
Mclk_n_pmos2 _y _clk_n _dff_s vdd sky130_fd_pr__pfet_g5v0d10v5__model l=5e-07 w=8.4e-07
Mnrst_nmos1 _net7 nrst _net4 vss sky130_fd_pr__nfet_g5v0d10v5__model l=5e-07 w=8.4e-07
Mclk_buf_pmos1 _dff_s _clk_buf _net5 vdd sky130_fd_pr__pfet_g5v0d10v5__model l=5e-07 w=8.4e-07
Mq_nmos _net4 q vss vss sky130_fd_pr__nfet_g5v0d10v5__model l=5e-07 w=8.4e-07
Mq_pmos _net5 q vdd vdd sky130_fd_pr__pfet_g5v0d10v5__model l=5e-07 w=8.4e-07
Mdff_s_nmos vss _dff_s q vss sky130_fd_pr__nfet_g5v0d10v5__model l=5e-07 w=9.55e-07
Mdff_s_pmos vdd _dff_s q vdd sky130_fd_pr__pfet_g5v0d10v5__model l=5e-07 w=1.255e-06
.ends dffnr_x1

.subckt Gallery vss vdd
Xfill[0] vdd vss fill
Xdffnr_x1[1] vdd vss dffnr_x1[1].i dffnr_x1[1].clk dffnr_x1[1].q dffnr_x1[1].nrst dffnr_x1
Xdffnr_x1[2] vdd vss dffnr_x1[2].i dffnr_x1[2].clk dffnr_x1[2].q dffnr_x1[2].nrst dffnr_x1
Xtie[0] vdd vss tie
Xdff_x1[1] vdd vss dff_x1[1].i dff_x1[1].clk dff_x1[1].q dff_x1
Xfill[2] vdd vss fill
Xtie_diff[0] vdd vss tie_diff
Xnsnrlatch_x1[1] vdd vss nsnrlatch_x1[1].nset nsnrlatch_x1[1].nrst nsnrlatch_x1[1].q nsnrlatch_x1[1].nq nsnrlatch_x1
Xdff_x1[2] vdd vss dff_x1[2].i dff_x1[2].clk dff_x1[2].q dff_x1
Xtie_poly[0] vdd vss tie_poly
Xnsnrlatch_x0[1] vdd vss nsnrlatch_x0[1].nset nsnrlatch_x0[1].nrst nsnrlatch_x0[1].q nsnrlatch_x0[1].nq nsnrlatch_x0
Xtie[2] vdd vss tie
Xfill_w2[0] vdd vss fill_w2
Xnexor2_x0[1] vdd vss nexor2_x0[1].i0 nexor2_x0[1].i1 nexor2_x0[1].nq nexor2_x0
Xnsnrlatch_x1[2] vdd vss nsnrlatch_x1[2].nset nsnrlatch_x1[2].nrst nsnrlatch_x1[2].q nsnrlatch_x1[2].nq nsnrlatch_x1
Xtie_w2[0] vdd vss tie_w2
Xxor2_x0[1] vdd vss xor2_x0[1].i0 xor2_x0[1].i1 xor2_x0[1].q xor2_x0
Xtie_diff[2] vdd vss tie_diff
Xtie_diff_w2[0] vdd vss tie_diff_w2
Xor21nand_x1[1] vdd vss or21nand_x1[1].nq or21nand_x1[1].i0 or21nand_x1[1].i1 or21nand_x1[1].i2 or21nand_x1
Xnsnrlatch_x0[2] vdd vss nsnrlatch_x0[2].nset nsnrlatch_x0[2].nrst nsnrlatch_x0[2].q nsnrlatch_x0[2].nq nsnrlatch_x0
Xtie_poly_w2[0] vdd vss tie_poly_w2
Xor21nand_x0[1] vdd vss or21nand_x0[1].nq or21nand_x0[1].i0 or21nand_x0[1].i1 or21nand_x0[1].i2 or21nand_x0
Xtie_poly[2] vdd vss tie_poly
Xfill_w4[0] vdd vss fill_w4
Xand21nor_x1[1] vdd vss and21nor_x1[1].nq and21nor_x1[1].i0 and21nor_x1[1].i1 and21nor_x1[1].i2 and21nor_x1
Xnexor2_x0[2] vdd vss nexor2_x0[2].i0 nexor2_x0[2].i1 nexor2_x0[2].nq nexor2_x0
Xtie_w4[0] vdd vss tie_w4
Xand21nor_x0[1] vdd vss and21nor_x0[1].nq and21nor_x0[1].i0 and21nor_x0[1].i1 and21nor_x0[1].i2 and21nor_x0
Xfill_w2[2] vdd vss fill_w2
Xtie_diff_w4[0] vdd vss tie_diff_w4
Xmux2_x1[1] vdd vss mux2_x1[1].i0 mux2_x1[1].i1 mux2_x1[1].cmd mux2_x1[1].q mux2_x1
Xxor2_x0[2] vdd vss xor2_x0[2].i0 xor2_x0[2].i1 xor2_x0[2].q xor2_x0
Xtie_poly_w4[0] vdd vss tie_poly_w4
Xor4_x1[1] vdd vss or4_x1[1].q or4_x1[1].i0 or4_x1[1].i1 or4_x1[1].i2 or4_x1[1].i3 or4_x1
Xtie_w2[2] vdd vss tie_w2
Xdiode_w1[0] vdd vss diode_w1[0].i diode_w1
Xor3_x1[1] vdd vss or3_x1[1].q or3_x1[1].i0 or3_x1[1].i1 or3_x1[1].i2 or3_x1
Xor21nand_x1[2] vdd vss or21nand_x1[2].nq or21nand_x1[2].i0 or21nand_x1[2].i1 or21nand_x1[2].i2 or21nand_x1
Xzero_x1[0] vdd vss zero_x1[0].zero zero_x1
Xor2_x1[1] vdd vss or2_x1[1].q or2_x1[1].i0 or2_x1[1].i1 or2_x1
Xtie_diff_w2[2] vdd vss tie_diff_w2
Xone_x1[0] vdd vss one_x1[0].one one_x1
Xnor4_x1[1] vdd vss nor4_x1[1].nq nor4_x1[1].i0 nor4_x1[1].i1 nor4_x1[1].i2 nor4_x1[1].i3 nor4_x1
Xor21nand_x0[2] vdd vss or21nand_x0[2].nq or21nand_x0[2].i0 or21nand_x0[2].i1 or21nand_x0[2].i2 or21nand_x0
Xzeroone_x1[0] vdd vss zeroone_x1[0].one zeroone_x1[0].zero zeroone_x1
Xnor4_x0[1] vdd vss nor4_x0[1].nq nor4_x0[1].i0 nor4_x0[1].i1 nor4_x0[1].i2 nor4_x0[1].i3 nor4_x0
Xtie_poly_w2[2] vdd vss tie_poly_w2
Xdecap_w0[0] vdd vss decap_w0
Xnor3_x1[1] vdd vss nor3_x1[1].nq nor3_x1[1].i0 nor3_x1[1].i1 nor3_x1[1].i2 nor3_x1
Xand21nor_x1[2] vdd vss and21nor_x1[2].nq and21nor_x1[2].i0 and21nor_x1[2].i1 and21nor_x1[2].i2 and21nor_x1
Xinv_x0[0] vdd vss inv_x0[0].i inv_x0[0].nq inv_x0
Xnor3_x0[1] vdd vss nor3_x0[1].nq nor3_x0[1].i0 nor3_x0[1].i1 nor3_x0[1].i2 nor3_x0
Xfill_w4[2] vdd vss fill_w4
Xinv_x1[0] vdd vss inv_x1[0].i inv_x1[0].nq inv_x1
Xnor2_x1[1] vdd vss nor2_x1[1].nq nor2_x1[1].i0 nor2_x1[1].i1 nor2_x1
Xand21nor_x0[2] vdd vss and21nor_x0[2].nq and21nor_x0[2].i0 and21nor_x0[2].i1 and21nor_x0[2].i2 and21nor_x0
Xinv_x2[0] vdd vss inv_x2[0].i inv_x2[0].nq inv_x2
Xnor2_x0[1] vdd vss nor2_x0[1].nq nor2_x0[1].i0 nor2_x0[1].i1 nor2_x0
Xtie_w4[2] vdd vss tie_w4
Xinv_x4[0] vdd vss inv_x4[0].i inv_x4[0].nq inv_x4