* Coriolis Structural SPICE Driver
* Generated on Oct 24, 2022, 16:30
* Cell/Subckt "eth_spram_256x32_netlist".
* Standra cell paths have to be changed for STA
* 
* INTERF we[3]
* INTERF we[2]
* INTERF we[1]
* INTERF we[0]
* INTERF vss
* INTERF vdd
* INTERF rst
* INTERF oe
* INTERF di[9]
* INTERF di[8]
* INTERF di[7]
* INTERF di[6]
* INTERF di[5]
* INTERF di[4]
* INTERF di[31]
* INTERF di[30]
* INTERF di[3]
* INTERF di[29]
* INTERF di[28]
* INTERF di[27]
* INTERF di[26]
* INTERF di[25]
* INTERF di[24]
* INTERF di[23]
* INTERF di[22]
* INTERF di[21]
* INTERF di[20]
* INTERF di[2]
* INTERF di[19]
* INTERF di[18]
* INTERF di[17]
* INTERF di[16]
* INTERF di[15]
* INTERF di[14]
* INTERF di[13]
* INTERF di[12]
* INTERF di[11]
* INTERF di[10]
* INTERF di[1]
* INTERF di[0]
* INTERF dato[9]
* INTERF dato[8]
* INTERF dato[7]
* INTERF dato[6]
* INTERF dato[5]
* INTERF dato[4]
* INTERF dato[31]
* INTERF dato[30]
* INTERF dato[3]
* INTERF dato[29]
* INTERF dato[28]
* INTERF dato[27]
* INTERF dato[26]
* INTERF dato[25]
* INTERF dato[24]
* INTERF dato[23]
* INTERF dato[22]
* INTERF dato[21]
* INTERF dato[20]
* INTERF dato[2]
* INTERF dato[19]
* INTERF dato[18]
* INTERF dato[17]
* INTERF dato[16]
* INTERF dato[15]
* INTERF dato[14]
* INTERF dato[13]
* INTERF dato[12]
* INTERF dato[11]
* INTERF dato[10]
* INTERF dato[1]
* INTERF dato[0]
* INTERF clk
* INTERF ce
* INTERF addr[7]
* INTERF addr[6]
* INTERF addr[5]
* INTERF addr[4]
* INTERF addr[3]
* INTERF addr[2]
* INTERF addr[1]
* INTERF addr[0]

* Terminal models (aka standard cells) used througout all the hierarchy.
*.include sff1_x4.spi
*.include mx2_x2.spi
*.include nand3_x0.spi
*.include a2_x2.spi
*.include ao22_x2.spi
*.include mx3_x2.spi
*.include o2_x2.spi
*.include a3_x2.spi
*.include nand4_x0.spi
*.include oa22_x2.spi
*.include nand2_x0.spi
*.include o3_x2.spi
*.include inv_x0.spi
*.include nor2_x0.spi
*.include a4_x2.spi
*.include nor4_x0.spi

* Non-terminal models (part of the user's design hierarchy).

.subckt eth_spram_256x32 0 1 2 3 4 5 6 15 8216 8217 8218 8219 8220 8221 8222 8223 8224 8225 8226 8227 8228 8229 8230 8231 8232 8233 8234 8235 8236 8237 8238 8239 8240 8241 8242 8243 8244 8245 8246 8247 8248 8249 8250 8251 8252 8253 8254 8255 8256 8257 8258 8259 8260 8261 8262 8263 8264 8265 8266 8267 8268 8269 8270 8271 8272 8273 8274 8275 8276 8277 8278 8279 8280 8281 8282 8283 8284 8285 8286 8287 8288 8289
* NET     0 = we[3]
* NET     1 = we[2]
* NET     2 = we[1]
* NET     3 = we[0]
* NET     4 = vss
* NET     5 = vdd
* NET     6 = rst
* NET     7 = raddr[7]
* NET     8 = raddr[6]
* NET     9 = raddr[5]
* NET    10 = raddr[4]
* NET    11 = raddr[3]
* NET    12 = raddr[2]
* NET    13 = raddr[1]
* NET    14 = raddr[0]
* NET    15 = oe
* NET    16 = n0_raddr_7_0_7
* NET    17 = n0_raddr_7_0_6
* NET    18 = n0_raddr_7_0_5
* NET    19 = n0_raddr_7_0_4
* NET    20 = n0_raddr_7_0_3
* NET    21 = n0_raddr_7_0_2
* NET    22 = n0_raddr_7_0_1
* NET    23 = n0_raddr_7_0_0
* NET    24 = mem3_9_7
* NET    25 = mem3_9_6
* NET    26 = mem3_9_5
* NET    27 = mem3_9_4
* NET    28 = mem3_9_3
* NET    29 = mem3_9_2
* NET    30 = mem3_9_1
* NET    31 = mem3_9_0
* NET    32 = mem3_99_7
* NET    33 = mem3_99_6
* NET    34 = mem3_99_5
* NET    35 = mem3_99_4
* NET    36 = mem3_99_3
* NET    37 = mem3_99_2
* NET    38 = mem3_99_1
* NET    39 = mem3_99_0
* NET    40 = mem3_98_7
* NET    41 = mem3_98_6
* NET    42 = mem3_98_5
* NET    43 = mem3_98_4
* NET    44 = mem3_98_3
* NET    45 = mem3_98_2
* NET    46 = mem3_98_1
* NET    47 = mem3_98_0
* NET    48 = mem3_97_7
* NET    49 = mem3_97_6
* NET    50 = mem3_97_5
* NET    51 = mem3_97_4
* NET    52 = mem3_97_3
* NET    53 = mem3_97_2
* NET    54 = mem3_97_1
* NET    55 = mem3_97_0
* NET    56 = mem3_96_7
* NET    57 = mem3_96_6
* NET    58 = mem3_96_5
* NET    59 = mem3_96_4
* NET    60 = mem3_96_3
* NET    61 = mem3_96_2
* NET    62 = mem3_96_1
* NET    63 = mem3_96_0
* NET    64 = mem3_95_7
* NET    65 = mem3_95_6
* NET    66 = mem3_95_5
* NET    67 = mem3_95_4
* NET    68 = mem3_95_3
* NET    69 = mem3_95_2
* NET    70 = mem3_95_1
* NET    71 = mem3_95_0
* NET    72 = mem3_94_7
* NET    73 = mem3_94_6
* NET    74 = mem3_94_5
* NET    75 = mem3_94_4
* NET    76 = mem3_94_3
* NET    77 = mem3_94_2
* NET    78 = mem3_94_1
* NET    79 = mem3_94_0
* NET    80 = mem3_93_7
* NET    81 = mem3_93_6
* NET    82 = mem3_93_5
* NET    83 = mem3_93_4
* NET    84 = mem3_93_3
* NET    85 = mem3_93_2
* NET    86 = mem3_93_1
* NET    87 = mem3_93_0
* NET    88 = mem3_92_7
* NET    89 = mem3_92_6
* NET    90 = mem3_92_5
* NET    91 = mem3_92_4
* NET    92 = mem3_92_3
* NET    93 = mem3_92_2
* NET    94 = mem3_92_1
* NET    95 = mem3_92_0
* NET    96 = mem3_91_7
* NET    97 = mem3_91_6
* NET    98 = mem3_91_5
* NET    99 = mem3_91_4
* NET   100 = mem3_91_3
* NET   101 = mem3_91_2
* NET   102 = mem3_91_1
* NET   103 = mem3_91_0
* NET   104 = mem3_90_7
* NET   105 = mem3_90_6
* NET   106 = mem3_90_5
* NET   107 = mem3_90_4
* NET   108 = mem3_90_3
* NET   109 = mem3_90_2
* NET   110 = mem3_90_1
* NET   111 = mem3_90_0
* NET   112 = mem3_8_7
* NET   113 = mem3_8_6
* NET   114 = mem3_8_5
* NET   115 = mem3_8_4
* NET   116 = mem3_8_3
* NET   117 = mem3_8_2
* NET   118 = mem3_8_1
* NET   119 = mem3_8_0
* NET   120 = mem3_89_7
* NET   121 = mem3_89_6
* NET   122 = mem3_89_5
* NET   123 = mem3_89_4
* NET   124 = mem3_89_3
* NET   125 = mem3_89_2
* NET   126 = mem3_89_1
* NET   127 = mem3_89_0
* NET   128 = mem3_88_7
* NET   129 = mem3_88_6
* NET   130 = mem3_88_5
* NET   131 = mem3_88_4
* NET   132 = mem3_88_3
* NET   133 = mem3_88_2
* NET   134 = mem3_88_1
* NET   135 = mem3_88_0
* NET   136 = mem3_87_7
* NET   137 = mem3_87_6
* NET   138 = mem3_87_5
* NET   139 = mem3_87_4
* NET   140 = mem3_87_3
* NET   141 = mem3_87_2
* NET   142 = mem3_87_1
* NET   143 = mem3_87_0
* NET   144 = mem3_86_7
* NET   145 = mem3_86_6
* NET   146 = mem3_86_5
* NET   147 = mem3_86_4
* NET   148 = mem3_86_3
* NET   149 = mem3_86_2
* NET   150 = mem3_86_1
* NET   151 = mem3_86_0
* NET   152 = mem3_85_7
* NET   153 = mem3_85_6
* NET   154 = mem3_85_5
* NET   155 = mem3_85_4
* NET   156 = mem3_85_3
* NET   157 = mem3_85_2
* NET   158 = mem3_85_1
* NET   159 = mem3_85_0
* NET   160 = mem3_84_7
* NET   161 = mem3_84_6
* NET   162 = mem3_84_5
* NET   163 = mem3_84_4
* NET   164 = mem3_84_3
* NET   165 = mem3_84_2
* NET   166 = mem3_84_1
* NET   167 = mem3_84_0
* NET   168 = mem3_83_7
* NET   169 = mem3_83_6
* NET   170 = mem3_83_5
* NET   171 = mem3_83_4
* NET   172 = mem3_83_3
* NET   173 = mem3_83_2
* NET   174 = mem3_83_1
* NET   175 = mem3_83_0
* NET   176 = mem3_82_7
* NET   177 = mem3_82_6
* NET   178 = mem3_82_5
* NET   179 = mem3_82_4
* NET   180 = mem3_82_3
* NET   181 = mem3_82_2
* NET   182 = mem3_82_1
* NET   183 = mem3_82_0
* NET   184 = mem3_81_7
* NET   185 = mem3_81_6
* NET   186 = mem3_81_5
* NET   187 = mem3_81_4
* NET   188 = mem3_81_3
* NET   189 = mem3_81_2
* NET   190 = mem3_81_1
* NET   191 = mem3_81_0
* NET   192 = mem3_80_7
* NET   193 = mem3_80_6
* NET   194 = mem3_80_5
* NET   195 = mem3_80_4
* NET   196 = mem3_80_3
* NET   197 = mem3_80_2
* NET   198 = mem3_80_1
* NET   199 = mem3_80_0
* NET   200 = mem3_7_7
* NET   201 = mem3_7_6
* NET   202 = mem3_7_5
* NET   203 = mem3_7_4
* NET   204 = mem3_7_3
* NET   205 = mem3_7_2
* NET   206 = mem3_7_1
* NET   207 = mem3_7_0
* NET   208 = mem3_79_7
* NET   209 = mem3_79_6
* NET   210 = mem3_79_5
* NET   211 = mem3_79_4
* NET   212 = mem3_79_3
* NET   213 = mem3_79_2
* NET   214 = mem3_79_1
* NET   215 = mem3_79_0
* NET   216 = mem3_78_7
* NET   217 = mem3_78_6
* NET   218 = mem3_78_5
* NET   219 = mem3_78_4
* NET   220 = mem3_78_3
* NET   221 = mem3_78_2
* NET   222 = mem3_78_1
* NET   223 = mem3_78_0
* NET   224 = mem3_77_7
* NET   225 = mem3_77_6
* NET   226 = mem3_77_5
* NET   227 = mem3_77_4
* NET   228 = mem3_77_3
* NET   229 = mem3_77_2
* NET   230 = mem3_77_1
* NET   231 = mem3_77_0
* NET   232 = mem3_76_7
* NET   233 = mem3_76_6
* NET   234 = mem3_76_5
* NET   235 = mem3_76_4
* NET   236 = mem3_76_3
* NET   237 = mem3_76_2
* NET   238 = mem3_76_1
* NET   239 = mem3_76_0
* NET   240 = mem3_75_7
* NET   241 = mem3_75_6
* NET   242 = mem3_75_5
* NET   243 = mem3_75_4
* NET   244 = mem3_75_3
* NET   245 = mem3_75_2
* NET   246 = mem3_75_1
* NET   247 = mem3_75_0
* NET   248 = mem3_74_7
* NET   249 = mem3_74_6
* NET   250 = mem3_74_5
* NET   251 = mem3_74_4
* NET   252 = mem3_74_3
* NET   253 = mem3_74_2
* NET   254 = mem3_74_1
* NET   255 = mem3_74_0
* NET   256 = mem3_73_7
* NET   257 = mem3_73_6
* NET   258 = mem3_73_5
* NET   259 = mem3_73_4
* NET   260 = mem3_73_3
* NET   261 = mem3_73_2
* NET   262 = mem3_73_1
* NET   263 = mem3_73_0
* NET   264 = mem3_72_7
* NET   265 = mem3_72_6
* NET   266 = mem3_72_5
* NET   267 = mem3_72_4
* NET   268 = mem3_72_3
* NET   269 = mem3_72_2
* NET   270 = mem3_72_1
* NET   271 = mem3_72_0
* NET   272 = mem3_71_7
* NET   273 = mem3_71_6
* NET   274 = mem3_71_5
* NET   275 = mem3_71_4
* NET   276 = mem3_71_3
* NET   277 = mem3_71_2
* NET   278 = mem3_71_1
* NET   279 = mem3_71_0
* NET   280 = mem3_70_7
* NET   281 = mem3_70_6
* NET   282 = mem3_70_5
* NET   283 = mem3_70_4
* NET   284 = mem3_70_3
* NET   285 = mem3_70_2
* NET   286 = mem3_70_1
* NET   287 = mem3_70_0
* NET   288 = mem3_6_7
* NET   289 = mem3_6_6
* NET   290 = mem3_6_5
* NET   291 = mem3_6_4
* NET   292 = mem3_6_3
* NET   293 = mem3_6_2
* NET   294 = mem3_6_1
* NET   295 = mem3_6_0
* NET   296 = mem3_69_7
* NET   297 = mem3_69_6
* NET   298 = mem3_69_5
* NET   299 = mem3_69_4
* NET   300 = mem3_69_3
* NET   301 = mem3_69_2
* NET   302 = mem3_69_1
* NET   303 = mem3_69_0
* NET   304 = mem3_68_7
* NET   305 = mem3_68_6
* NET   306 = mem3_68_5
* NET   307 = mem3_68_4
* NET   308 = mem3_68_3
* NET   309 = mem3_68_2
* NET   310 = mem3_68_1
* NET   311 = mem3_68_0
* NET   312 = mem3_67_7
* NET   313 = mem3_67_6
* NET   314 = mem3_67_5
* NET   315 = mem3_67_4
* NET   316 = mem3_67_3
* NET   317 = mem3_67_2
* NET   318 = mem3_67_1
* NET   319 = mem3_67_0
* NET   320 = mem3_66_7
* NET   321 = mem3_66_6
* NET   322 = mem3_66_5
* NET   323 = mem3_66_4
* NET   324 = mem3_66_3
* NET   325 = mem3_66_2
* NET   326 = mem3_66_1
* NET   327 = mem3_66_0
* NET   328 = mem3_65_7
* NET   329 = mem3_65_6
* NET   330 = mem3_65_5
* NET   331 = mem3_65_4
* NET   332 = mem3_65_3
* NET   333 = mem3_65_2
* NET   334 = mem3_65_1
* NET   335 = mem3_65_0
* NET   336 = mem3_64_7
* NET   337 = mem3_64_6
* NET   338 = mem3_64_5
* NET   339 = mem3_64_4
* NET   340 = mem3_64_3
* NET   341 = mem3_64_2
* NET   342 = mem3_64_1
* NET   343 = mem3_64_0
* NET   344 = mem3_63_7
* NET   345 = mem3_63_6
* NET   346 = mem3_63_5
* NET   347 = mem3_63_4
* NET   348 = mem3_63_3
* NET   349 = mem3_63_2
* NET   350 = mem3_63_1
* NET   351 = mem3_63_0
* NET   352 = mem3_62_7
* NET   353 = mem3_62_6
* NET   354 = mem3_62_5
* NET   355 = mem3_62_4
* NET   356 = mem3_62_3
* NET   357 = mem3_62_2
* NET   358 = mem3_62_1
* NET   359 = mem3_62_0
* NET   360 = mem3_61_7
* NET   361 = mem3_61_6
* NET   362 = mem3_61_5
* NET   363 = mem3_61_4
* NET   364 = mem3_61_3
* NET   365 = mem3_61_2
* NET   366 = mem3_61_1
* NET   367 = mem3_61_0
* NET   368 = mem3_60_7
* NET   369 = mem3_60_6
* NET   370 = mem3_60_5
* NET   371 = mem3_60_4
* NET   372 = mem3_60_3
* NET   373 = mem3_60_2
* NET   374 = mem3_60_1
* NET   375 = mem3_60_0
* NET   376 = mem3_5_7
* NET   377 = mem3_5_6
* NET   378 = mem3_5_5
* NET   379 = mem3_5_4
* NET   380 = mem3_5_3
* NET   381 = mem3_5_2
* NET   382 = mem3_5_1
* NET   383 = mem3_5_0
* NET   384 = mem3_59_7
* NET   385 = mem3_59_6
* NET   386 = mem3_59_5
* NET   387 = mem3_59_4
* NET   388 = mem3_59_3
* NET   389 = mem3_59_2
* NET   390 = mem3_59_1
* NET   391 = mem3_59_0
* NET   392 = mem3_58_7
* NET   393 = mem3_58_6
* NET   394 = mem3_58_5
* NET   395 = mem3_58_4
* NET   396 = mem3_58_3
* NET   397 = mem3_58_2
* NET   398 = mem3_58_1
* NET   399 = mem3_58_0
* NET   400 = mem3_57_7
* NET   401 = mem3_57_6
* NET   402 = mem3_57_5
* NET   403 = mem3_57_4
* NET   404 = mem3_57_3
* NET   405 = mem3_57_2
* NET   406 = mem3_57_1
* NET   407 = mem3_57_0
* NET   408 = mem3_56_7
* NET   409 = mem3_56_6
* NET   410 = mem3_56_5
* NET   411 = mem3_56_4
* NET   412 = mem3_56_3
* NET   413 = mem3_56_2
* NET   414 = mem3_56_1
* NET   415 = mem3_56_0
* NET   416 = mem3_55_7
* NET   417 = mem3_55_6
* NET   418 = mem3_55_5
* NET   419 = mem3_55_4
* NET   420 = mem3_55_3
* NET   421 = mem3_55_2
* NET   422 = mem3_55_1
* NET   423 = mem3_55_0
* NET   424 = mem3_54_7
* NET   425 = mem3_54_6
* NET   426 = mem3_54_5
* NET   427 = mem3_54_4
* NET   428 = mem3_54_3
* NET   429 = mem3_54_2
* NET   430 = mem3_54_1
* NET   431 = mem3_54_0
* NET   432 = mem3_53_7
* NET   433 = mem3_53_6
* NET   434 = mem3_53_5
* NET   435 = mem3_53_4
* NET   436 = mem3_53_3
* NET   437 = mem3_53_2
* NET   438 = mem3_53_1
* NET   439 = mem3_53_0
* NET   440 = mem3_52_7
* NET   441 = mem3_52_6
* NET   442 = mem3_52_5
* NET   443 = mem3_52_4
* NET   444 = mem3_52_3
* NET   445 = mem3_52_2
* NET   446 = mem3_52_1
* NET   447 = mem3_52_0
* NET   448 = mem3_51_7
* NET   449 = mem3_51_6
* NET   450 = mem3_51_5
* NET   451 = mem3_51_4
* NET   452 = mem3_51_3
* NET   453 = mem3_51_2
* NET   454 = mem3_51_1
* NET   455 = mem3_51_0
* NET   456 = mem3_50_7
* NET   457 = mem3_50_6
* NET   458 = mem3_50_5
* NET   459 = mem3_50_4
* NET   460 = mem3_50_3
* NET   461 = mem3_50_2
* NET   462 = mem3_50_1
* NET   463 = mem3_50_0
* NET   464 = mem3_4_7
* NET   465 = mem3_4_6
* NET   466 = mem3_4_5
* NET   467 = mem3_4_4
* NET   468 = mem3_4_3
* NET   469 = mem3_4_2
* NET   470 = mem3_4_1
* NET   471 = mem3_4_0
* NET   472 = mem3_49_7
* NET   473 = mem3_49_6
* NET   474 = mem3_49_5
* NET   475 = mem3_49_4
* NET   476 = mem3_49_3
* NET   477 = mem3_49_2
* NET   478 = mem3_49_1
* NET   479 = mem3_49_0
* NET   480 = mem3_48_7
* NET   481 = mem3_48_6
* NET   482 = mem3_48_5
* NET   483 = mem3_48_4
* NET   484 = mem3_48_3
* NET   485 = mem3_48_2
* NET   486 = mem3_48_1
* NET   487 = mem3_48_0
* NET   488 = mem3_47_7
* NET   489 = mem3_47_6
* NET   490 = mem3_47_5
* NET   491 = mem3_47_4
* NET   492 = mem3_47_3
* NET   493 = mem3_47_2
* NET   494 = mem3_47_1
* NET   495 = mem3_47_0
* NET   496 = mem3_46_7
* NET   497 = mem3_46_6
* NET   498 = mem3_46_5
* NET   499 = mem3_46_4
* NET   500 = mem3_46_3
* NET   501 = mem3_46_2
* NET   502 = mem3_46_1
* NET   503 = mem3_46_0
* NET   504 = mem3_45_7
* NET   505 = mem3_45_6
* NET   506 = mem3_45_5
* NET   507 = mem3_45_4
* NET   508 = mem3_45_3
* NET   509 = mem3_45_2
* NET   510 = mem3_45_1
* NET   511 = mem3_45_0
* NET   512 = mem3_44_7
* NET   513 = mem3_44_6
* NET   514 = mem3_44_5
* NET   515 = mem3_44_4
* NET   516 = mem3_44_3
* NET   517 = mem3_44_2
* NET   518 = mem3_44_1
* NET   519 = mem3_44_0
* NET   520 = mem3_43_7
* NET   521 = mem3_43_6
* NET   522 = mem3_43_5
* NET   523 = mem3_43_4
* NET   524 = mem3_43_3
* NET   525 = mem3_43_2
* NET   526 = mem3_43_1
* NET   527 = mem3_43_0
* NET   528 = mem3_42_7
* NET   529 = mem3_42_6
* NET   530 = mem3_42_5
* NET   531 = mem3_42_4
* NET   532 = mem3_42_3
* NET   533 = mem3_42_2
* NET   534 = mem3_42_1
* NET   535 = mem3_42_0
* NET   536 = mem3_41_7
* NET   537 = mem3_41_6
* NET   538 = mem3_41_5
* NET   539 = mem3_41_4
* NET   540 = mem3_41_3
* NET   541 = mem3_41_2
* NET   542 = mem3_41_1
* NET   543 = mem3_41_0
* NET   544 = mem3_40_7
* NET   545 = mem3_40_6
* NET   546 = mem3_40_5
* NET   547 = mem3_40_4
* NET   548 = mem3_40_3
* NET   549 = mem3_40_2
* NET   550 = mem3_40_1
* NET   551 = mem3_40_0
* NET   552 = mem3_3_7
* NET   553 = mem3_3_6
* NET   554 = mem3_3_5
* NET   555 = mem3_3_4
* NET   556 = mem3_3_3
* NET   557 = mem3_3_2
* NET   558 = mem3_3_1
* NET   559 = mem3_3_0
* NET   560 = mem3_39_7
* NET   561 = mem3_39_6
* NET   562 = mem3_39_5
* NET   563 = mem3_39_4
* NET   564 = mem3_39_3
* NET   565 = mem3_39_2
* NET   566 = mem3_39_1
* NET   567 = mem3_39_0
* NET   568 = mem3_38_7
* NET   569 = mem3_38_6
* NET   570 = mem3_38_5
* NET   571 = mem3_38_4
* NET   572 = mem3_38_3
* NET   573 = mem3_38_2
* NET   574 = mem3_38_1
* NET   575 = mem3_38_0
* NET   576 = mem3_37_7
* NET   577 = mem3_37_6
* NET   578 = mem3_37_5
* NET   579 = mem3_37_4
* NET   580 = mem3_37_3
* NET   581 = mem3_37_2
* NET   582 = mem3_37_1
* NET   583 = mem3_37_0
* NET   584 = mem3_36_7
* NET   585 = mem3_36_6
* NET   586 = mem3_36_5
* NET   587 = mem3_36_4
* NET   588 = mem3_36_3
* NET   589 = mem3_36_2
* NET   590 = mem3_36_1
* NET   591 = mem3_36_0
* NET   592 = mem3_35_7
* NET   593 = mem3_35_6
* NET   594 = mem3_35_5
* NET   595 = mem3_35_4
* NET   596 = mem3_35_3
* NET   597 = mem3_35_2
* NET   598 = mem3_35_1
* NET   599 = mem3_35_0
* NET   600 = mem3_34_7
* NET   601 = mem3_34_6
* NET   602 = mem3_34_5
* NET   603 = mem3_34_4
* NET   604 = mem3_34_3
* NET   605 = mem3_34_2
* NET   606 = mem3_34_1
* NET   607 = mem3_34_0
* NET   608 = mem3_33_7
* NET   609 = mem3_33_6
* NET   610 = mem3_33_5
* NET   611 = mem3_33_4
* NET   612 = mem3_33_3
* NET   613 = mem3_33_2
* NET   614 = mem3_33_1
* NET   615 = mem3_33_0
* NET   616 = mem3_32_7
* NET   617 = mem3_32_6
* NET   618 = mem3_32_5
* NET   619 = mem3_32_4
* NET   620 = mem3_32_3
* NET   621 = mem3_32_2
* NET   622 = mem3_32_1
* NET   623 = mem3_32_0
* NET   624 = mem3_31_7
* NET   625 = mem3_31_6
* NET   626 = mem3_31_5
* NET   627 = mem3_31_4
* NET   628 = mem3_31_3
* NET   629 = mem3_31_2
* NET   630 = mem3_31_1
* NET   631 = mem3_31_0
* NET   632 = mem3_30_7
* NET   633 = mem3_30_6
* NET   634 = mem3_30_5
* NET   635 = mem3_30_4
* NET   636 = mem3_30_3
* NET   637 = mem3_30_2
* NET   638 = mem3_30_1
* NET   639 = mem3_30_0
* NET   640 = mem3_2_7
* NET   641 = mem3_2_6
* NET   642 = mem3_2_5
* NET   643 = mem3_2_4
* NET   644 = mem3_2_3
* NET   645 = mem3_2_2
* NET   646 = mem3_2_1
* NET   647 = mem3_2_0
* NET   648 = mem3_29_7
* NET   649 = mem3_29_6
* NET   650 = mem3_29_5
* NET   651 = mem3_29_4
* NET   652 = mem3_29_3
* NET   653 = mem3_29_2
* NET   654 = mem3_29_1
* NET   655 = mem3_29_0
* NET   656 = mem3_28_7
* NET   657 = mem3_28_6
* NET   658 = mem3_28_5
* NET   659 = mem3_28_4
* NET   660 = mem3_28_3
* NET   661 = mem3_28_2
* NET   662 = mem3_28_1
* NET   663 = mem3_28_0
* NET   664 = mem3_27_7
* NET   665 = mem3_27_6
* NET   666 = mem3_27_5
* NET   667 = mem3_27_4
* NET   668 = mem3_27_3
* NET   669 = mem3_27_2
* NET   670 = mem3_27_1
* NET   671 = mem3_27_0
* NET   672 = mem3_26_7
* NET   673 = mem3_26_6
* NET   674 = mem3_26_5
* NET   675 = mem3_26_4
* NET   676 = mem3_26_3
* NET   677 = mem3_26_2
* NET   678 = mem3_26_1
* NET   679 = mem3_26_0
* NET   680 = mem3_25_7
* NET   681 = mem3_25_6
* NET   682 = mem3_25_5
* NET   683 = mem3_25_4
* NET   684 = mem3_25_3
* NET   685 = mem3_25_2
* NET   686 = mem3_25_1
* NET   687 = mem3_25_0
* NET   688 = mem3_255_7
* NET   689 = mem3_255_6
* NET   690 = mem3_255_5
* NET   691 = mem3_255_4
* NET   692 = mem3_255_3
* NET   693 = mem3_255_2
* NET   694 = mem3_255_1
* NET   695 = mem3_255_0
* NET   696 = mem3_254_7
* NET   697 = mem3_254_6
* NET   698 = mem3_254_5
* NET   699 = mem3_254_4
* NET   700 = mem3_254_3
* NET   701 = mem3_254_2
* NET   702 = mem3_254_1
* NET   703 = mem3_254_0
* NET   704 = mem3_253_7
* NET   705 = mem3_253_6
* NET   706 = mem3_253_5
* NET   707 = mem3_253_4
* NET   708 = mem3_253_3
* NET   709 = mem3_253_2
* NET   710 = mem3_253_1
* NET   711 = mem3_253_0
* NET   712 = mem3_252_7
* NET   713 = mem3_252_6
* NET   714 = mem3_252_5
* NET   715 = mem3_252_4
* NET   716 = mem3_252_3
* NET   717 = mem3_252_2
* NET   718 = mem3_252_1
* NET   719 = mem3_252_0
* NET   720 = mem3_251_7
* NET   721 = mem3_251_6
* NET   722 = mem3_251_5
* NET   723 = mem3_251_4
* NET   724 = mem3_251_3
* NET   725 = mem3_251_2
* NET   726 = mem3_251_1
* NET   727 = mem3_251_0
* NET   728 = mem3_250_7
* NET   729 = mem3_250_6
* NET   730 = mem3_250_5
* NET   731 = mem3_250_4
* NET   732 = mem3_250_3
* NET   733 = mem3_250_2
* NET   734 = mem3_250_1
* NET   735 = mem3_250_0
* NET   736 = mem3_24_7
* NET   737 = mem3_24_6
* NET   738 = mem3_24_5
* NET   739 = mem3_24_4
* NET   740 = mem3_24_3
* NET   741 = mem3_24_2
* NET   742 = mem3_24_1
* NET   743 = mem3_24_0
* NET   744 = mem3_249_7
* NET   745 = mem3_249_6
* NET   746 = mem3_249_5
* NET   747 = mem3_249_4
* NET   748 = mem3_249_3
* NET   749 = mem3_249_2
* NET   750 = mem3_249_1
* NET   751 = mem3_249_0
* NET   752 = mem3_248_7
* NET   753 = mem3_248_6
* NET   754 = mem3_248_5
* NET   755 = mem3_248_4
* NET   756 = mem3_248_3
* NET   757 = mem3_248_2
* NET   758 = mem3_248_1
* NET   759 = mem3_248_0
* NET   760 = mem3_247_7
* NET   761 = mem3_247_6
* NET   762 = mem3_247_5
* NET   763 = mem3_247_4
* NET   764 = mem3_247_3
* NET   765 = mem3_247_2
* NET   766 = mem3_247_1
* NET   767 = mem3_247_0
* NET   768 = mem3_246_7
* NET   769 = mem3_246_6
* NET   770 = mem3_246_5
* NET   771 = mem3_246_4
* NET   772 = mem3_246_3
* NET   773 = mem3_246_2
* NET   774 = mem3_246_1
* NET   775 = mem3_246_0
* NET   776 = mem3_245_7
* NET   777 = mem3_245_6
* NET   778 = mem3_245_5
* NET   779 = mem3_245_4
* NET   780 = mem3_245_3
* NET   781 = mem3_245_2
* NET   782 = mem3_245_1
* NET   783 = mem3_245_0
* NET   784 = mem3_244_7
* NET   785 = mem3_244_6
* NET   786 = mem3_244_5
* NET   787 = mem3_244_4
* NET   788 = mem3_244_3
* NET   789 = mem3_244_2
* NET   790 = mem3_244_1
* NET   791 = mem3_244_0
* NET   792 = mem3_243_7
* NET   793 = mem3_243_6
* NET   794 = mem3_243_5
* NET   795 = mem3_243_4
* NET   796 = mem3_243_3
* NET   797 = mem3_243_2
* NET   798 = mem3_243_1
* NET   799 = mem3_243_0
* NET   800 = mem3_242_7
* NET   801 = mem3_242_6
* NET   802 = mem3_242_5
* NET   803 = mem3_242_4
* NET   804 = mem3_242_3
* NET   805 = mem3_242_2
* NET   806 = mem3_242_1
* NET   807 = mem3_242_0
* NET   808 = mem3_241_7
* NET   809 = mem3_241_6
* NET   810 = mem3_241_5
* NET   811 = mem3_241_4
* NET   812 = mem3_241_3
* NET   813 = mem3_241_2
* NET   814 = mem3_241_1
* NET   815 = mem3_241_0
* NET   816 = mem3_240_7
* NET   817 = mem3_240_6
* NET   818 = mem3_240_5
* NET   819 = mem3_240_4
* NET   820 = mem3_240_3
* NET   821 = mem3_240_2
* NET   822 = mem3_240_1
* NET   823 = mem3_240_0
* NET   824 = mem3_23_7
* NET   825 = mem3_23_6
* NET   826 = mem3_23_5
* NET   827 = mem3_23_4
* NET   828 = mem3_23_3
* NET   829 = mem3_23_2
* NET   830 = mem3_23_1
* NET   831 = mem3_23_0
* NET   832 = mem3_239_7
* NET   833 = mem3_239_6
* NET   834 = mem3_239_5
* NET   835 = mem3_239_4
* NET   836 = mem3_239_3
* NET   837 = mem3_239_2
* NET   838 = mem3_239_1
* NET   839 = mem3_239_0
* NET   840 = mem3_238_7
* NET   841 = mem3_238_6
* NET   842 = mem3_238_5
* NET   843 = mem3_238_4
* NET   844 = mem3_238_3
* NET   845 = mem3_238_2
* NET   846 = mem3_238_1
* NET   847 = mem3_238_0
* NET   848 = mem3_237_7
* NET   849 = mem3_237_6
* NET   850 = mem3_237_5
* NET   851 = mem3_237_4
* NET   852 = mem3_237_3
* NET   853 = mem3_237_2
* NET   854 = mem3_237_1
* NET   855 = mem3_237_0
* NET   856 = mem3_236_7
* NET   857 = mem3_236_6
* NET   858 = mem3_236_5
* NET   859 = mem3_236_4
* NET   860 = mem3_236_3
* NET   861 = mem3_236_2
* NET   862 = mem3_236_1
* NET   863 = mem3_236_0
* NET   864 = mem3_235_7
* NET   865 = mem3_235_6
* NET   866 = mem3_235_5
* NET   867 = mem3_235_4
* NET   868 = mem3_235_3
* NET   869 = mem3_235_2
* NET   870 = mem3_235_1
* NET   871 = mem3_235_0
* NET   872 = mem3_234_7
* NET   873 = mem3_234_6
* NET   874 = mem3_234_5
* NET   875 = mem3_234_4
* NET   876 = mem3_234_3
* NET   877 = mem3_234_2
* NET   878 = mem3_234_1
* NET   879 = mem3_234_0
* NET   880 = mem3_233_7
* NET   881 = mem3_233_6
* NET   882 = mem3_233_5
* NET   883 = mem3_233_4
* NET   884 = mem3_233_3
* NET   885 = mem3_233_2
* NET   886 = mem3_233_1
* NET   887 = mem3_233_0
* NET   888 = mem3_232_7
* NET   889 = mem3_232_6
* NET   890 = mem3_232_5
* NET   891 = mem3_232_4
* NET   892 = mem3_232_3
* NET   893 = mem3_232_2
* NET   894 = mem3_232_1
* NET   895 = mem3_232_0
* NET   896 = mem3_231_7
* NET   897 = mem3_231_6
* NET   898 = mem3_231_5
* NET   899 = mem3_231_4
* NET   900 = mem3_231_3
* NET   901 = mem3_231_2
* NET   902 = mem3_231_1
* NET   903 = mem3_231_0
* NET   904 = mem3_230_7
* NET   905 = mem3_230_6
* NET   906 = mem3_230_5
* NET   907 = mem3_230_4
* NET   908 = mem3_230_3
* NET   909 = mem3_230_2
* NET   910 = mem3_230_1
* NET   911 = mem3_230_0
* NET   912 = mem3_22_7
* NET   913 = mem3_22_6
* NET   914 = mem3_22_5
* NET   915 = mem3_22_4
* NET   916 = mem3_22_3
* NET   917 = mem3_22_2
* NET   918 = mem3_22_1
* NET   919 = mem3_22_0
* NET   920 = mem3_229_7
* NET   921 = mem3_229_6
* NET   922 = mem3_229_5
* NET   923 = mem3_229_4
* NET   924 = mem3_229_3
* NET   925 = mem3_229_2
* NET   926 = mem3_229_1
* NET   927 = mem3_229_0
* NET   928 = mem3_228_7
* NET   929 = mem3_228_6
* NET   930 = mem3_228_5
* NET   931 = mem3_228_4
* NET   932 = mem3_228_3
* NET   933 = mem3_228_2
* NET   934 = mem3_228_1
* NET   935 = mem3_228_0
* NET   936 = mem3_227_7
* NET   937 = mem3_227_6
* NET   938 = mem3_227_5
* NET   939 = mem3_227_4
* NET   940 = mem3_227_3
* NET   941 = mem3_227_2
* NET   942 = mem3_227_1
* NET   943 = mem3_227_0
* NET   944 = mem3_226_7
* NET   945 = mem3_226_6
* NET   946 = mem3_226_5
* NET   947 = mem3_226_4
* NET   948 = mem3_226_3
* NET   949 = mem3_226_2
* NET   950 = mem3_226_1
* NET   951 = mem3_226_0
* NET   952 = mem3_225_7
* NET   953 = mem3_225_6
* NET   954 = mem3_225_5
* NET   955 = mem3_225_4
* NET   956 = mem3_225_3
* NET   957 = mem3_225_2
* NET   958 = mem3_225_1
* NET   959 = mem3_225_0
* NET   960 = mem3_224_7
* NET   961 = mem3_224_6
* NET   962 = mem3_224_5
* NET   963 = mem3_224_4
* NET   964 = mem3_224_3
* NET   965 = mem3_224_2
* NET   966 = mem3_224_1
* NET   967 = mem3_224_0
* NET   968 = mem3_223_7
* NET   969 = mem3_223_6
* NET   970 = mem3_223_5
* NET   971 = mem3_223_4
* NET   972 = mem3_223_3
* NET   973 = mem3_223_2
* NET   974 = mem3_223_1
* NET   975 = mem3_223_0
* NET   976 = mem3_222_7
* NET   977 = mem3_222_6
* NET   978 = mem3_222_5
* NET   979 = mem3_222_4
* NET   980 = mem3_222_3
* NET   981 = mem3_222_2
* NET   982 = mem3_222_1
* NET   983 = mem3_222_0
* NET   984 = mem3_221_7
* NET   985 = mem3_221_6
* NET   986 = mem3_221_5
* NET   987 = mem3_221_4
* NET   988 = mem3_221_3
* NET   989 = mem3_221_2
* NET   990 = mem3_221_1
* NET   991 = mem3_221_0
* NET   992 = mem3_220_7
* NET   993 = mem3_220_6
* NET   994 = mem3_220_5
* NET   995 = mem3_220_4
* NET   996 = mem3_220_3
* NET   997 = mem3_220_2
* NET   998 = mem3_220_1
* NET   999 = mem3_220_0
* NET  1000 = mem3_21_7
* NET  1001 = mem3_21_6
* NET  1002 = mem3_21_5
* NET  1003 = mem3_21_4
* NET  1004 = mem3_21_3
* NET  1005 = mem3_21_2
* NET  1006 = mem3_21_1
* NET  1007 = mem3_21_0
* NET  1008 = mem3_219_7
* NET  1009 = mem3_219_6
* NET  1010 = mem3_219_5
* NET  1011 = mem3_219_4
* NET  1012 = mem3_219_3
* NET  1013 = mem3_219_2
* NET  1014 = mem3_219_1
* NET  1015 = mem3_219_0
* NET  1016 = mem3_218_7
* NET  1017 = mem3_218_6
* NET  1018 = mem3_218_5
* NET  1019 = mem3_218_4
* NET  1020 = mem3_218_3
* NET  1021 = mem3_218_2
* NET  1022 = mem3_218_1
* NET  1023 = mem3_218_0
* NET  1024 = mem3_217_7
* NET  1025 = mem3_217_6
* NET  1026 = mem3_217_5
* NET  1027 = mem3_217_4
* NET  1028 = mem3_217_3
* NET  1029 = mem3_217_2
* NET  1030 = mem3_217_1
* NET  1031 = mem3_217_0
* NET  1032 = mem3_216_7
* NET  1033 = mem3_216_6
* NET  1034 = mem3_216_5
* NET  1035 = mem3_216_4
* NET  1036 = mem3_216_3
* NET  1037 = mem3_216_2
* NET  1038 = mem3_216_1
* NET  1039 = mem3_216_0
* NET  1040 = mem3_215_7
* NET  1041 = mem3_215_6
* NET  1042 = mem3_215_5
* NET  1043 = mem3_215_4
* NET  1044 = mem3_215_3
* NET  1045 = mem3_215_2
* NET  1046 = mem3_215_1
* NET  1047 = mem3_215_0
* NET  1048 = mem3_214_7
* NET  1049 = mem3_214_6
* NET  1050 = mem3_214_5
* NET  1051 = mem3_214_4
* NET  1052 = mem3_214_3
* NET  1053 = mem3_214_2
* NET  1054 = mem3_214_1
* NET  1055 = mem3_214_0
* NET  1056 = mem3_213_7
* NET  1057 = mem3_213_6
* NET  1058 = mem3_213_5
* NET  1059 = mem3_213_4
* NET  1060 = mem3_213_3
* NET  1061 = mem3_213_2
* NET  1062 = mem3_213_1
* NET  1063 = mem3_213_0
* NET  1064 = mem3_212_7
* NET  1065 = mem3_212_6
* NET  1066 = mem3_212_5
* NET  1067 = mem3_212_4
* NET  1068 = mem3_212_3
* NET  1069 = mem3_212_2
* NET  1070 = mem3_212_1
* NET  1071 = mem3_212_0
* NET  1072 = mem3_211_7
* NET  1073 = mem3_211_6
* NET  1074 = mem3_211_5
* NET  1075 = mem3_211_4
* NET  1076 = mem3_211_3
* NET  1077 = mem3_211_2
* NET  1078 = mem3_211_1
* NET  1079 = mem3_211_0
* NET  1080 = mem3_210_7
* NET  1081 = mem3_210_6
* NET  1082 = mem3_210_5
* NET  1083 = mem3_210_4
* NET  1084 = mem3_210_3
* NET  1085 = mem3_210_2
* NET  1086 = mem3_210_1
* NET  1087 = mem3_210_0
* NET  1088 = mem3_20_7
* NET  1089 = mem3_20_6
* NET  1090 = mem3_20_5
* NET  1091 = mem3_20_4
* NET  1092 = mem3_20_3
* NET  1093 = mem3_20_2
* NET  1094 = mem3_20_1
* NET  1095 = mem3_20_0
* NET  1096 = mem3_209_7
* NET  1097 = mem3_209_6
* NET  1098 = mem3_209_5
* NET  1099 = mem3_209_4
* NET  1100 = mem3_209_3
* NET  1101 = mem3_209_2
* NET  1102 = mem3_209_1
* NET  1103 = mem3_209_0
* NET  1104 = mem3_208_7
* NET  1105 = mem3_208_6
* NET  1106 = mem3_208_5
* NET  1107 = mem3_208_4
* NET  1108 = mem3_208_3
* NET  1109 = mem3_208_2
* NET  1110 = mem3_208_1
* NET  1111 = mem3_208_0
* NET  1112 = mem3_207_7
* NET  1113 = mem3_207_6
* NET  1114 = mem3_207_5
* NET  1115 = mem3_207_4
* NET  1116 = mem3_207_3
* NET  1117 = mem3_207_2
* NET  1118 = mem3_207_1
* NET  1119 = mem3_207_0
* NET  1120 = mem3_206_7
* NET  1121 = mem3_206_6
* NET  1122 = mem3_206_5
* NET  1123 = mem3_206_4
* NET  1124 = mem3_206_3
* NET  1125 = mem3_206_2
* NET  1126 = mem3_206_1
* NET  1127 = mem3_206_0
* NET  1128 = mem3_205_7
* NET  1129 = mem3_205_6
* NET  1130 = mem3_205_5
* NET  1131 = mem3_205_4
* NET  1132 = mem3_205_3
* NET  1133 = mem3_205_2
* NET  1134 = mem3_205_1
* NET  1135 = mem3_205_0