*  
*  Avertec Release v3.4p5 (64 bits on Linux 3.10.0-1160.108.1.el7.x86_64)
*  [AVT_only] host: bip
*  [AVT_only] arch: x86_64
*  [AVT_only] path: /users/outil/tasyag/Linux.el7_64/install/bin/avt_shell
*  argv: ./paths_select_simu.tcl 
*  
*  User: aoudrhiri
*  Generation date Fri Sep 27 18:08:52 2024
*  
*  Spice description of picorv32_m_ext
*  


.subckt picorv32_m_ext _15152__a_891_413 net237 _02756_ _02919_ _02910_ 
+ net213 net215 net218 net186 _02831_ _02818_ _02801_ _02807_ _02892_ _02886_ 
+ _02869_ _02884_ _15152__a_27_47 _15152__a_193_47 _02393_ _02871_ _02864_ 
+ _02855_ _02891_ _02458_ net119 net108 net97 net247 net211 net212 _02700_ 
+ _15218__a_27_47 _15218__a_193_47 _02630_ net125 net126 _02757_ _02912_ 
+ net216 net217 _02904_ _02902_ _02758_ _02873_ _02924_ _02922_ 
+ _15152__a_466_413 _02847_ _02846_ _02845_ _08241__a_27_297 _08240__a_27_297 
+ _15218__a_466_413 
* |CONDIR _15152_.a_891_413 IN, net237 IN, _02756_ IN, _02919_ IN, _02910_ IN
* |CONDIR net213 IN, net215 IN, net218 IN, net186 IN, _02831_ IN
* |CONDIR _02818_ IN, _02801_ IN, _02807_ IN, _02892_ IN, _02886_ IN
* |CONDIR _02869_ IN, _02884_ IN, _15152_.a_27_47 IN, _15152_.a_193_47 IN, _02393_ IN
* |CONDIR _02871_ IN, _02864_ IN, _02855_ IN, _02891_ IN, _02458_ IN
* |CONDIR net119 IN, net108 IN, net97 IN, net247 IN, net211 IN
* |CONDIR net212 IN, _02700_ IN, _15218_.a_27_47 IN, _15218_.a_193_47 IN, _02630_ IN
* |CONDIR net125 IN, net126 IN, _02757_ IN, _02912_ IN, net216 IN
* |CONDIR net217 IN, _02904_ IN, _02902_ IN, _02758_ IN, _02873_ IN
* |CONDIR _02924_ IN, _02922_ IN, _15152_.a_466_413 IN, _02847_ IN, _02846_ IN
* |CONDIR _02845_ IN, _08241_.a_27_297 IN, _08240_.a_27_297 IN, _15218_.a_466_413 OUT
Mdup_15218__17_sky130_fd_pr__nfet_01v8 VGND _15218__a_27_47 VPWR VGND 
+ sky130_fd_pr__nfet_01v8__model L=0.15U W=0.36U PS=0U PD=0U nrs=0 nrd=0 sa=0 
+ sb=0 sd=0 nf=1 
Mdup_15218__2_sky130_fd_pr__pfet_01v8_hvt VGND _15218__a_27_47 VPWR VPWR 
+ sky130_fd_pr__pfet_01v8_hvt__model L=0.15U W=0.42U PS=0U PD=0U nrs=0 nrd=0 
+ sa=0 sb=0 sd=0 nf=1 
Mdup_15218__15_sky130_fd_pr__nfet_01v8 VGND _15218__a_193_47 VPWR VGND 
+ sky130_fd_pr__nfet_01v8__model L=0.15U W=0.36U PS=0U PD=0U nrs=0 nrd=0 sa=0 
+ sb=0 sd=0 nf=1 
Mdup_15218__4_sky130_fd_pr__pfet_01v8_hvt VGND _15218__a_193_47 VPWR VPWR 
+ sky130_fd_pr__pfet_01v8_hvt__model L=0.15U W=0.42U PS=0U PD=0U nrs=0 nrd=0 
+ sa=0 sb=0 sd=0 nf=1 
M_08254__4_sky130_fd_pr__pfet_01v8_hvt VGND _02835_ VPWR VPWR 
+ sky130_fd_pr__pfet_01v8_hvt__model L=0.15U W=0.42U PS=0U PD=0U nrs=0 nrd=0 
+ sa=0 sb=0 sd=0 nf=1 
M_08254__2_sky130_fd_pr__nfet_01v8 VGND _02835_ VPWR VGND 
+ sky130_fd_pr__nfet_01v8__model L=0.15U W=0.42U PS=0U PD=0U nrs=0 nrd=0 sa=0 
+ sb=0 sd=0 nf=1 
M_08325__2_sky130_fd_pr__nfet_01v8 VGND _02913_ VPWR VGND 
+ sky130_fd_pr__nfet_01v8__model L=0.15U W=0.65U PS=0U PD=0U nrs=0 nrd=0 sa=0 
+ sb=0 sd=0 nf=1 
M_08325__1_sky130_fd_pr__pfet_01v8_hvt VPWR _02913_ VGND VPWR 
+ sky130_fd_pr__pfet_01v8_hvt__model L=0.15U W=1U PS=0U PD=0U nrs=0 nrd=0 sa=0 
+ sb=0 sd=0 nf=1 
M_08261__3_sky130_fd_pr__nfet_01v8 VPWR _02849_ VGND VGND 
+ sky130_fd_pr__nfet_01v8__model L=0.15U W=0.42U PS=0U PD=0U nrs=0 nrd=0 sa=0 
+ sb=0 sd=0 nf=1 
M_08261__0_sky130_fd_pr__pfet_01v8_hvt VGND _02849_ VPWR VPWR 
+ sky130_fd_pr__pfet_01v8_hvt__model L=0.15U W=0.42U PS=0U PD=0U nrs=0 nrd=0 
+ sa=0 sb=0 sd=0 nf=1 
M_08260__3_sky130_fd_pr__nfet_01v8 VGND _02849_ VPWR VGND 
+ sky130_fd_pr__nfet_01v8__model L=0.15U W=0.65U PS=0U PD=0U nrs=0 nrd=0 sa=0 
+ sb=0 sd=0 nf=1 
M_08260__0_sky130_fd_pr__pfet_01v8_hvt VGND _02849_ VPWR VPWR 
+ sky130_fd_pr__pfet_01v8_hvt__model L=0.15U W=1U PS=0U PD=0U nrs=0 nrd=0 sa=0 
+ sb=0 sd=0 nf=1 
M_08270__4_sky130_fd_pr__pfet_01v8_hvt VPWR _02849_ VGND VPWR 
+ sky130_fd_pr__pfet_01v8_hvt__model L=0.15U W=1U PS=0U PD=0U nrs=0 nrd=0 sa=0 
+ sb=0 sd=0 nf=1 
M_08270__2_sky130_fd_pr__nfet_01v8 VPWR _02849_ VGND VGND 
+ sky130_fd_pr__nfet_01v8__model L=0.15U W=0.65U PS=0U PD=0U nrs=0 nrd=0 sa=0 
+ sb=0 sd=0 nf=1 
M_08208__3_sky130_fd_pr__pfet_01v8_hvt VPWR net237 VGND VPWR 
+ sky130_fd_pr__pfet_01v8_hvt__model L=0.15U W=1U PS=0U PD=0U nrs=0 nrd=0 sa=0 
+ sb=0 sd=0 nf=1 
M_08208__9_sky130_fd_pr__nfet_01v8 VPWR net237 VGND VGND 
+ sky130_fd_pr__nfet_01v8__model L=0.15U W=0.65U PS=0U PD=0U nrs=0 nrd=0 sa=0 
+ sb=0 sd=0 nf=1 
M_08208__2_sky130_fd_pr__pfet_01v8_hvt VGND net237 VPWR VPWR 
+ sky130_fd_pr__pfet_01v8_hvt__model L=0.15U W=1U PS=0U PD=0U nrs=0 nrd=0 sa=0 
+ sb=0 sd=0 nf=1 
M_08208__0_sky130_fd_pr__nfet_01v8 VGND net237 VPWR VGND 
+ sky130_fd_pr__nfet_01v8__model L=0.15U W=0.65U PS=0U PD=0U nrs=0 nrd=0 sa=0 
+ sb=0 sd=0 nf=1 
Mwire237_3_sky130_fd_pr__pfet_01v8_hvt VPWR VPWR net237 VPWR 
+ sky130_fd_pr__pfet_01v8_hvt__model L=0.15U W=0.79U PS=0U PD=0U nrs=0 nrd=0 
+ sa=0 sb=0 sd=0 nf=1 
Mwire237_0_sky130_fd_pr__nfet_01v8 VGND VGND net237 VGND 
+ sky130_fd_pr__nfet_01v8__model L=0.15U W=0.52U PS=0U PD=0U nrs=0 nrd=0 sa=0 
+ sb=0 sd=0 nf=1 
M_08152__3_sky130_fd_pr__pfet_01v8_hvt _02756_ VPWR VPWR VPWR 
+ sky130_fd_pr__pfet_01v8_hvt__model L=0.15U W=1U PS=0U PD=0U nrs=0 nrd=0 sa=0 
+ sb=0 sd=0 nf=1 
M_08152__9_sky130_fd_pr__nfet_01v8 VGND VGND _02756_ VGND 
+ sky130_fd_pr__nfet_01v8__model L=0.15U W=0.65U PS=0U PD=0U nrs=0 nrd=0 sa=0 
+ sb=0 sd=0 nf=1 
M_08208__6_sky130_fd_pr__pfet_01v8_hvt VGND _02756_ VPWR VPWR 
+ sky130_fd_pr__pfet_01v8_hvt__model L=0.15U W=1U PS=0U PD=0U nrs=0 nrd=0 sa=0 
+ sb=0 sd=0 nf=1 
M_08162__6_sky130_fd_pr__pfet_01v8_hvt VPWR _02756_ VGND VPWR 
+ sky130_fd_pr__pfet_01v8_hvt__model L=0.15U W=0.42U PS=0U PD=0U nrs=0 nrd=0 
+ sa=0 sb=0 sd=0 nf=1 
M_08162__1_sky130_fd_pr__nfet_01v8 VPWR _02756_ VGND VGND 
+ sky130_fd_pr__nfet_01v8__model L=0.15U W=0.42U PS=0U PD=0U nrs=0 nrd=0 sa=0 
+ sb=0 sd=0 nf=1 
M_08161__5_sky130_fd_pr__pfet_01v8_hvt VGND _02756_ VPWR VPWR 
+ sky130_fd_pr__pfet_01v8_hvt__model L=0.15U W=0.42U PS=0U PD=0U nrs=0 nrd=0 
+ sa=0 sb=0 sd=0 nf=1 
M_08161__0_sky130_fd_pr__nfet_01v8 VPWR _02756_ VGND VGND 
+ sky130_fd_pr__nfet_01v8__model L=0.15U W=0.42U PS=0U PD=0U nrs=0 nrd=0 sa=0 
+ sb=0 sd=0 nf=1 
M_08208__11_sky130_fd_pr__nfet_01v8 VGND _02756_ VPWR VGND 
+ sky130_fd_pr__nfet_01v8__model L=0.15U W=0.65U PS=0U PD=0U nrs=0 nrd=0 sa=0 
+ sb=0 sd=0 nf=1 
M_08208__10_sky130_fd_pr__nfet_01v8 VGND _02756_ VPWR VGND 
+ sky130_fd_pr__nfet_01v8__model L=0.15U W=0.65U PS=0U PD=0U nrs=0 nrd=0 sa=0 
+ sb=0 sd=0 nf=1 
M_08208__1_sky130_fd_pr__pfet_01v8_hvt VPWR _02756_ VGND VPWR 
+ sky130_fd_pr__pfet_01v8_hvt__model L=0.15U W=1U PS=0U PD=0U nrs=0 nrd=0 sa=0 
+ sb=0 sd=0 nf=1 
M_08152__7_sky130_fd_pr__nfet_01v8 _02756_ VGND VGND VGND 
+ sky130_fd_pr__nfet_01v8__model L=0.15U W=0.65U PS=0U PD=0U nrs=0 nrd=0 sa=0 
+ sb=0 sd=0 nf=1 
M_08152__0_sky130_fd_pr__pfet_01v8_hvt VPWR VPWR _02756_ VPWR 
+ sky130_fd_pr__pfet_01v8_hvt__model L=0.15U W=1U PS=0U PD=0U nrs=0 nrd=0 sa=0 
+ sb=0 sd=0 nf=1 
M_08316__6_sky130_fd_pr__pfet_01v8_hvt VPWR _02906_ VGND VPWR 
+ sky130_fd_pr__pfet_01v8_hvt__model L=0.15U W=1U PS=0U PD=0U nrs=0 nrd=0 sa=0 
+ sb=0 sd=0 nf=1 
M_08316__5_sky130_fd_pr__nfet_01v8 VGND _02906_ VPWR VGND 
+ sky130_fd_pr__nfet_01v8__model L=0.15U W=0.65U PS=0U PD=0U nrs=0 nrd=0 sa=0 
+ sb=0 sd=0 nf=1 
M_08316__4_sky130_fd_pr__nfet_01v8 VGND _02906_ VPWR VGND 
+ sky130_fd_pr__nfet_01v8__model L=0.15U W=0.65U PS=0U PD=0U nrs=0 nrd=0 sa=0 
+ sb=0 sd=0 nf=1 
M_08316__1_sky130_fd_pr__pfet_01v8_hvt VGND _02906_ VPWR VPWR 
+ sky130_fd_pr__pfet_01v8_hvt__model L=0.15U W=1U PS=0U PD=0U nrs=0 nrd=0 sa=0 
+ sb=0 sd=0 nf=1 
M_08333__8_sky130_fd_pr__pfet_01v8_hvt VGND _02914_ VPWR VPWR 
+ sky130_fd_pr__pfet_01v8_hvt__model L=0.15U W=1U PS=0U PD=0U nrs=0 nrd=0 sa=0 
+ sb=0 sd=0 nf=1 
M_08333__2_sky130_fd_pr__nfet_01v8 VGND _02914_ VPWR VGND 
+ sky130_fd_pr__nfet_01v8__model L=0.15U W=0.65U PS=0U PD=0U nrs=0 nrd=0 sa=0 
+ sb=0 sd=0 nf=1 
M_08328__9_sky130_fd_pr__pfet_01v8_hvt VGND _02914_ VPWR VPWR 
+ sky130_fd_pr__pfet_01v8_hvt__model L=0.15U W=1U PS=0U PD=0U nrs=0 nrd=0 sa=0 
+ sb=0 sd=0 nf=1 
M_08328__3_sky130_fd_pr__nfet_01v8 VGND _02914_ VPWR VGND 
+ sky130_fd_pr__nfet_01v8__model L=0.15U W=0.65U PS=0U PD=0U nrs=0 nrd=0 sa=0 
+ sb=0 sd=0 nf=1 
M_08281__2_sky130_fd_pr__nfet_01v8 VGND _02874_ VPWR VGND 
+ sky130_fd_pr__nfet_01v8__model L=0.15U W=0.65U PS=0U PD=0U nrs=0 nrd=0 sa=0 
+ sb=0 sd=0 nf=1 
M_08281__1_sky130_fd_pr__pfet_01v8_hvt VPWR _02874_ VGND VPWR 
+ sky130_fd_pr__pfet_01v8_hvt__model L=0.15U W=1U PS=0U PD=0U nrs=0 nrd=0 sa=0 
+ sb=0 sd=0 nf=1 
M_08017__1_sky130_fd_pr__nfet_01v8 VGND _02609_ VPWR VGND 
+ sky130_fd_pr__nfet_01v8__model L=0.15U W=0.65U PS=0U PD=0U nrs=0 nrd=0 sa=0 
+ sb=0 sd=0 nf=1 
M_08017__0_sky130_fd_pr__pfet_01v8_hvt VGND _02609_ VPWR VPWR 
+ sky130_fd_pr__pfet_01v8_hvt__model L=0.15U W=1U PS=0U PD=0U nrs=0 nrd=0 sa=0 
+ sb=0 sd=0 nf=1 
M_08031__8_sky130_fd_pr__pfet_01v8_hvt VGND _02609_ VPWR VPWR 
+ sky130_fd_pr__pfet_01v8_hvt__model L=0.15U W=1U PS=0U PD=0U nrs=0 nrd=0 sa=0 
+ sb=0 sd=0 nf=1 
M_08031__0_sky130_fd_pr__nfet_01v8 VPWR _02609_ VGND VGND 
+ sky130_fd_pr__nfet_01v8__model L=0.15U W=0.65U PS=0U PD=0U nrs=0 nrd=0 sa=0 
+ sb=0 sd=0 nf=1 
M_07994__2_sky130_fd_pr__nfet_01v8 VGND _02609_ VPWR VGND 
+ sky130_fd_pr__nfet_01v8__model L=0.15U W=0.65U PS=0U PD=0U nrs=0 nrd=0 sa=0 
+ sb=0 sd=0 nf=1 
M_07994__1_sky130_fd_pr__pfet_01v8_hvt VPWR _02609_ VGND VPWR 
+ sky130_fd_pr__pfet_01v8_hvt__model L=0.15U W=1U PS=0U PD=0U nrs=0 nrd=0 sa=0 
+ sb=0 sd=0 nf=1 
M_08007__5_sky130_fd_pr__pfet_01v8_hvt VGND _02609_ VPWR VPWR 
+ sky130_fd_pr__pfet_01v8_hvt__model L=0.15U W=1U PS=0U PD=0U nrs=0 nrd=0 sa=0 
+ sb=0 sd=0 nf=1 
M_08007__4_sky130_fd_pr__nfet_01v8 VPWR _02609_ VGND VGND 
+ sky130_fd_pr__nfet_01v8__model L=0.15U W=0.65U PS=0U PD=0U nrs=0 nrd=0 sa=0 
+ sb=0 sd=0 nf=1 
M_08333__9_sky130_fd_pr__pfet_01v8_hvt VPWR _02919_ VGND VPWR 
+ sky130_fd_pr__pfet_01v8_hvt__model L=0.15U W=1U PS=0U PD=0U nrs=0 nrd=0 sa=0 
+ sb=0 sd=0 nf=1 
M_08333__7_sky130_fd_pr__nfet_01v8 VGND _02919_ VPWR VGND 
+ sky130_fd_pr__nfet_01v8__model L=0.15U W=0.65U PS=0U PD=0U nrs=0 nrd=0 sa=0 
+ sb=0 sd=0 nf=1 
M_08330__9_sky130_fd_pr__nfet_01v8 VGND VGND _02919_ VGND 
+ sky130_fd_pr__nfet_01v8__model L=0.15U W=0.65U PS=0U PD=0U nrs=0 nrd=0 sa=0 
+ sb=0 sd=0 nf=1 
M_08330__2_sky130_fd_pr__pfet_01v8_hvt _02919_ VPWR VPWR VPWR 
+ sky130_fd_pr__pfet_01v8_hvt__model L=0.15U W=1U PS=0U PD=0U nrs=0 nrd=0 sa=0 
+ sb=0 sd=0 nf=1 
M_08330__1_sky130_fd_pr__pfet_01v8_hvt VPWR VPWR _02919_ VPWR 
+ sky130_fd_pr__pfet_01v8_hvt__model L=0.15U W=1U PS=0U PD=0U nrs=0 nrd=0 sa=0 
+ sb=0 sd=0 nf=1 
M_08320__3_sky130_fd_pr__nfet_01v8 VGND VGND _02910_ VGND 
+ sky130_fd_pr__nfet_01v8__model L=0.15U W=0.65U PS=0U PD=0U nrs=0 nrd=0 sa=0 
+ sb=0 sd=0 nf=1 
M_08320__1_sky130_fd_pr__pfet_01v8_hvt VPWR VPWR _02910_ VPWR 
+ sky130_fd_pr__pfet_01v8_hvt__model L=0.15U W=1U PS=0U PD=0U nrs=0 nrd=0 sa=0 
+ sb=0 sd=0 nf=1 
M_08320__0_sky130_fd_pr__pfet_01v8_hvt _02910_ VPWR VPWR VPWR 
+ sky130_fd_pr__pfet_01v8_hvt__model L=0.15U W=1U PS=0U PD=0U nrs=0 nrd=0 sa=0 
+ sb=0 sd=0 nf=1 
M_08333__5_sky130_fd_pr__pfet_01v8_hvt VPWR _02910_ VGND VPWR 
+ sky130_fd_pr__pfet_01v8_hvt__model L=0.15U W=1U PS=0U PD=0U nrs=0 nrd=0 sa=0 
+ sb=0 sd=0 nf=1 
M_08333__4_sky130_fd_pr__nfet_01v8 VGND _02910_ VPWR VGND 
+ sky130_fd_pr__nfet_01v8__model L=0.15U W=0.65U PS=0U PD=0U nrs=0 nrd=0 sa=0 
+ sb=0 sd=0 nf=1 
M_08197__5_sky130_fd_pr__pfet_01v8_hvt VGND _02791_ VPWR VPWR 
+ sky130_fd_pr__pfet_01v8_hvt__model L=0.15U W=1U PS=0U PD=0U nrs=0 nrd=0 sa=0 
+ sb=0 sd=0 nf=1 
M_08197__4_sky130_fd_pr__nfet_01v8 VPWR _02791_ VGND VGND 
+ sky130_fd_pr__nfet_01v8__model L=0.15U W=0.65U PS=0U PD=0U nrs=0 nrd=0 sa=0 
+ sb=0 sd=0 nf=1 
M_08191__2_sky130_fd_pr__nfet_01v8 VGND _02791_ VPWR VGND 
+ sky130_fd_pr__nfet_01v8__model L=0.15U W=0.65U PS=0U PD=0U nrs=0 nrd=0 sa=0 
+ sb=0 sd=0 nf=1 
M_08191__1_sky130_fd_pr__pfet_01v8_hvt VPWR _02791_ VGND VPWR 
+ sky130_fd_pr__pfet_01v8_hvt__model L=0.15U W=1U PS=0U PD=0U nrs=0 nrd=0 sa=0 
+ sb=0 sd=0 nf=1 
M_08229__4_sky130_fd_pr__pfet_01v8_hvt VPWR _02813_ VGND VPWR 
+ sky130_fd_pr__pfet_01v8_hvt__model L=0.15U W=1U PS=0U PD=0U nrs=0 nrd=0 sa=0 
+ sb=0 sd=0 nf=1 
M_08229__0_sky130_fd_pr__nfet_01v8 VPWR _02813_ VGND VGND 
+ sky130_fd_pr__nfet_01v8__model L=0.15U W=0.65U PS=0U PD=0U nrs=0 nrd=0 sa=0 
+ sb=0 sd=0 nf=1 
Mrebuffer24_3_sky130_fd_pr__pfet_01v8_hvt VPWR _02813_ VGND VPWR 
+ sky130_fd_pr__pfet_01v8_hvt__model L=0.15U W=0.79U PS=0U PD=0U nrs=0 nrd=0 
+ sa=0 sb=0 sd=0 nf=1 
Mrebuffer24_0_sky130_fd_pr__nfet_01v8 VGND _02813_ VPWR VGND 
+ sky130_fd_pr__nfet_01v8__model L=0.15U W=0.52U PS=0U PD=0U nrs=0 nrd=0 sa=0 
+ sb=0 sd=0 nf=1 
M_15168__8_sky130_fd_pr__nfet_01v8 VGND VGND net213 VGND 
+ sky130_fd_pr__nfet_01v8__model L=0.15U W=0.65U PS=0U PD=0U nrs=0 nrd=0 sa=0 
+ sb=0 sd=0 nf=1 
M_15168__24_sky130_fd_pr__nfet_01v8 VGND VGND net213 VGND 
+ sky130_fd_pr__nfet_01v8__model L=0.15U W=0.65U PS=0U PD=0U nrs=0 nrd=0 sa=0 
+ sb=0 sd=0 nf=1 
M_15168__20_sky130_fd_pr__nfet_01v8 net213 VGND VGND VGND 
+ sky130_fd_pr__nfet_01v8__model L=0.15U W=0.65U PS=0U PD=0U nrs=0 nrd=0 sa=0 
+ sb=0 sd=0 nf=1 
M_15168__7_sky130_fd_pr__pfet_01v8_hvt net213 VPWR VPWR VPWR 
+ sky130_fd_pr__pfet_01v8_hvt__model L=0.15U W=1U PS=0U PD=0U nrs=0 nrd=0 sa=0 
+ sb=0 sd=0 nf=1 
M_15168__5_sky130_fd_pr__pfet_01v8_hvt VPWR VPWR net213 VPWR 
+ sky130_fd_pr__pfet_01v8_hvt__model L=0.15U W=1U PS=0U PD=0U nrs=0 nrd=0 sa=0 
+ sb=0 sd=0 nf=1 
M_15168__29_sky130_fd_pr__pfet_01v8_hvt net213 VPWR VPWR VPWR 
+ sky130_fd_pr__pfet_01v8_hvt__model L=0.15U W=1U PS=0U PD=0U nrs=0 nrd=0 sa=0 
+ sb=0 sd=0 nf=1 
M_08192__5_sky130_fd_pr__pfet_01v8_hvt VGND net213 VPWR VPWR 
+ sky130_fd_pr__pfet_01v8_hvt__model L=0.15U W=1U PS=0U PD=0U nrs=0 nrd=0 sa=0 
+ sb=0 sd=0 nf=1 
M_08192__7_sky130_fd_pr__nfet_01v8 VGND net213 VPWR VGND 
+ sky130_fd_pr__nfet_01v8__model L=0.15U W=0.65U PS=0U PD=0U nrs=0 nrd=0 sa=0 
+ sb=0 sd=0 nf=1 
M_08192__14_sky130_fd_pr__pfet_01v8_hvt VGND net213 VPWR VPWR 
+ sky130_fd_pr__pfet_01v8_hvt__model L=0.15U W=1U PS=0U PD=0U nrs=0 nrd=0 sa=0 
+ sb=0 sd=0 nf=1 
M_08192__17_sky130_fd_pr__nfet_01v8 VPWR net213 VGND VGND 
+ sky130_fd_pr__nfet_01v8__model L=0.15U W=0.65U PS=0U PD=0U nrs=0 nrd=0 sa=0 
+ sb=0 sd=0 nf=1 
M_07789__2_sky130_fd_pr__nfet_01v8 VGND net213 VPWR VGND 
+ sky130_fd_pr__nfet_01v8__model L=0.15U W=0.65U PS=0U PD=0U nrs=0 nrd=0 sa=0 
+ sb=0 sd=0 nf=1 
M_07789__3_sky130_fd_pr__pfet_01v8_hvt VGND net213 VPWR VPWR 
+ sky130_fd_pr__pfet_01v8_hvt__model L=0.15U W=1U PS=0U PD=0U nrs=0 nrd=0 sa=0 
+ sb=0 sd=0 nf=1 
M_12493__6_sky130_fd_pr__pfet_01v8_hvt VGND net213 VPWR VPWR 
+ sky130_fd_pr__pfet_01v8_hvt__model L=0.15U W=0.42U PS=0U PD=0U nrs=0 nrd=0 
+ sa=0 sb=0 sd=0 nf=1 
M_12493__1_sky130_fd_pr__nfet_01v8 VGND net213 VPWR VGND 
+ sky130_fd_pr__nfet_01v8__model L=0.15U W=0.42U PS=0U PD=0U nrs=0 nrd=0 sa=0 
+ sb=0 sd=0 nf=1 
Moutput213_5_sky130_fd_pr__nfet_01v8 VPWR net213 VGND VGND 
+ sky130_fd_pr__nfet_01v8__model L=0.15U W=0.42U PS=0U PD=0U nrs=0 nrd=0 sa=0 
+ sb=0 sd=0 nf=1 
Moutput213_1_sky130_fd_pr__pfet_01v8_hvt VGND net213 VPWR VPWR 
+ sky130_fd_pr__pfet_01v8_hvt__model L=0.15U W=0.64U PS=0U PD=0U nrs=0 nrd=0 
+ sa=0 sb=0 sd=0 nf=1 
M_07789__1_sky130_fd_pr__pfet_01v8_hvt VPWR net213 VGND VPWR 
+ sky130_fd_pr__pfet_01v8_hvt__model L=0.15U W=1U PS=0U PD=0U nrs=0 nrd=0 sa=0 
+ sb=0 sd=0 nf=1 
M_07789__0_sky130_fd_pr__nfet_01v8 VPWR net213 VGND VGND 
+ sky130_fd_pr__nfet_01v8__model L=0.15U W=0.65U PS=0U PD=0U nrs=0 nrd=0 sa=0 
+ sb=0 sd=0 nf=1 
M_08197__1_sky130_fd_pr__nfet_01v8 VGND net213 VPWR VGND 
+ sky130_fd_pr__nfet_01v8__model L=0.15U W=0.65U PS=0U PD=0U nrs=0 nrd=0 sa=0 
+ sb=0 sd=0 nf=1 
M_08197__0_sky130_fd_pr__pfet_01v8_hvt VGND net213 VPWR VPWR 
+ sky130_fd_pr__pfet_01v8_hvt__model L=0.15U W=1U PS=0U PD=0U nrs=0 nrd=0 sa=0 
+ sb=0 sd=0 nf=1 
M_08192__15_sky130_fd_pr__nfet_01v8 VGND net213 VPWR VGND 
+ sky130_fd_pr__nfet_01v8__model L=0.15U W=0.65U PS=0U PD=0U nrs=0 nrd=0 sa=0 
+ sb=0 sd=0 nf=1 
M_08192__13_sky130_fd_pr__pfet_01v8_hvt VPWR net213 VGND VPWR 
+ sky130_fd_pr__pfet_01v8_hvt__model L=0.15U W=1U PS=0U PD=0U nrs=0 nrd=0 sa=0 
+ sb=0 sd=0 nf=1 
M_08192__11_sky130_fd_pr__nfet_01v8 VPWR net213 VGND VGND 
+ sky130_fd_pr__nfet_01v8__model L=0.15U W=0.65U PS=0U PD=0U nrs=0 nrd=0 sa=0 
+ sb=0 sd=0 nf=1 
M_08192__0_sky130_fd_pr__pfet_01v8_hvt VPWR net213 VGND VPWR 
+ sky130_fd_pr__pfet_01v8_hvt__model L=0.15U W=1U PS=0U PD=0U nrs=0 nrd=0 sa=0 
+ sb=0 sd=0 nf=1 
M_15168__12_sky130_fd_pr__pfet_01v8_hvt VPWR VPWR net213 VPWR 
+ sky130_fd_pr__pfet_01v8_hvt__model L=0.15U W=1U PS=0U PD=0U nrs=0 nrd=0 sa=0 
+ sb=0 sd=0 nf=1 
M_15168__2_sky130_fd_pr__nfet_01v8 net213 VGND VGND VGND 
+ sky130_fd_pr__nfet_01v8__model L=0.15U W=0.65U PS=0U PD=0U nrs=0 nrd=0 sa=0 
+ sb=0 sd=0 nf=1 
M_08365__5_sky130_fd_pr__nfet_01v8 VGND net213 VPWR VGND 
+ sky130_fd_pr__nfet_01v8__model L=0.15U W=0.42U PS=0U PD=0U nrs=0 nrd=0 sa=0 
+ sb=0 sd=0 nf=1 
M_08365__4_sky130_fd_pr__pfet_01v8_hvt VGND net213 VPWR VPWR 
+ sky130_fd_pr__pfet_01v8_hvt__model L=0.15U W=0.42U PS=0U PD=0U nrs=0 nrd=0 
+ sa=0 sb=0 sd=0 nf=1 
M_07791__4_sky130_fd_pr__pfet_01v8_hvt VGND net213 VPWR VPWR 
+ sky130_fd_pr__pfet_01v8_hvt__model L=0.15U W=0.42U PS=0U PD=0U nrs=0 nrd=0 
+ sa=0 sb=0 sd=0 nf=1 
M_07791__2_sky130_fd_pr__nfet_01v8 VGND net213 VPWR VGND 
+ sky130_fd_pr__nfet_01v8__model L=0.15U W=0.42U PS=0U PD=0U nrs=0 nrd=0 sa=0 
+ sb=0 sd=0 nf=1 
M_08188__8_sky130_fd_pr__pfet_01v8_hvt VGND net213 VPWR VPWR 
+ sky130_fd_pr__pfet_01v8_hvt__model L=0.15U W=1U PS=0U PD=0U nrs=0 nrd=0 sa=0 
+ sb=0 sd=0 nf=1 
M_08188__2_sky130_fd_pr__nfet_01v8 VGND net213 VPWR VGND 
+ sky130_fd_pr__nfet_01v8__model L=0.15U W=0.65U PS=0U PD=0U nrs=0 nrd=0 sa=0 
+ sb=0 sd=0 nf=1 
M_07790__2_sky130_fd_pr__nfet_01v8 VGND net213 VPWR VGND 
+ sky130_fd_pr__nfet_01v8__model L=0.15U W=0.65U PS=0U PD=0U nrs=0 nrd=0 sa=0 
+ sb=0 sd=0 nf=1 
M_07790__1_sky130_fd_pr__pfet_01v8_hvt VPWR net213 VGND VPWR 
+ sky130_fd_pr__pfet_01v8_hvt__model L=0.15U W=1U PS=0U PD=0U nrs=0 nrd=0 sa=0 
+ sb=0 sd=0 nf=1 
M_15169__8_sky130_fd_pr__nfet_01v8 VGND VGND net215 VGND 
+ sky130_fd_pr__nfet_01v8__model L=0.15U W=0.65U PS=0U PD=0U nrs=0 nrd=0 sa=0 
+ sb=0 sd=0 nf=1 
M_15169__24_sky130_fd_pr__nfet_01v8 VGND VGND net215 VGND 
+ sky130_fd_pr__nfet_01v8__model L=0.15U W=0.65U PS=0U PD=0U nrs=0 nrd=0 sa=0 
+ sb=0 sd=0 nf=1 
M_15169__20_sky130_fd_pr__nfet_01v8 net215 VGND VGND VGND 
+ sky130_fd_pr__nfet_01v8__model L=0.15U W=0.65U PS=0U PD=0U nrs=0 nrd=0 sa=0 
+ sb=0 sd=0 nf=1 
M_15169__7_sky130_fd_pr__pfet_01v8_hvt net215 VPWR VPWR VPWR 
+ sky130_fd_pr__pfet_01v8_hvt__model L=0.15U W=1U PS=0U PD=0U nrs=0 nrd=0 sa=0 
+ sb=0 sd=0 nf=1 
M_15169__5_sky130_fd_pr__pfet_01v8_hvt VPWR VPWR net215 VPWR 
+ sky130_fd_pr__pfet_01v8_hvt__model L=0.15U W=1U PS=0U PD=0U nrs=0 nrd=0 sa=0 
+ sb=0 sd=0 nf=1 
M_15169__29_sky130_fd_pr__pfet_01v8_hvt net215 VPWR VPWR VPWR 
+ sky130_fd_pr__pfet_01v8_hvt__model L=0.15U W=1U PS=0U PD=0U nrs=0 nrd=0 sa=0 
+ sb=0 sd=0 nf=1 
Moutput215_5_sky130_fd_pr__nfet_01v8 VPWR net215 VGND VGND 
+ sky130_fd_pr__nfet_01v8__model L=0.15U W=0.42U PS=0U PD=0U nrs=0 nrd=0 sa=0 
+ sb=0 sd=0 nf=1 
Moutput215_1_sky130_fd_pr__pfet_01v8_hvt VGND net215 VPWR VPWR 
+ sky130_fd_pr__pfet_01v8_hvt__model L=0.15U W=0.64U PS=0U PD=0U nrs=0 nrd=0 
+ sa=0 sb=0 sd=0 nf=1 
M_07786__2_sky130_fd_pr__nfet_01v8 VGND net215 VPWR VGND 
+ sky130_fd_pr__nfet_01v8__model L=0.15U W=0.65U PS=0U PD=0U nrs=0 nrd=0 sa=0 
+ sb=0 sd=0 nf=1 
M_07786__1_sky130_fd_pr__pfet_01v8_hvt VPWR net215 VGND VPWR 
+ sky130_fd_pr__pfet_01v8_hvt__model L=0.15U W=1U PS=0U PD=0U nrs=0 nrd=0 sa=0 
+ sb=0 sd=0 nf=1 
M_07785__4_sky130_fd_pr__pfet_01v8_hvt VGND net215 VPWR VPWR 
+ sky130_fd_pr__pfet_01v8_hvt__model L=0.15U W=0.42U PS=0U PD=0U nrs=0 nrd=0 
+ sa=0 sb=0 sd=0 nf=1 
M_07785__2_sky130_fd_pr__nfet_01v8 VGND net215 VPWR VGND 
+ sky130_fd_pr__nfet_01v8__model L=0.15U W=0.42U PS=0U PD=0U nrs=0 nrd=0 sa=0 
+ sb=0 sd=0 nf=1 
M_08198__8_sky130_fd_pr__nfet_01v8 VGND net215 VPWR VGND 
+ sky130_fd_pr__nfet_01v8__model L=0.15U W=0.65U PS=0U PD=0U nrs=0 nrd=0 sa=0 
+ sb=0 sd=0 nf=1 
M_08198__7_sky130_fd_pr__pfet_01v8_hvt VGND net215 VPWR VPWR 
+ sky130_fd_pr__pfet_01v8_hvt__model L=0.15U W=1U PS=0U PD=0U nrs=0 nrd=0 sa=0 
+ sb=0 sd=0 nf=1 
M_08198__3_sky130_fd_pr__nfet_01v8 VPWR net215 VGND VGND 
+ sky130_fd_pr__nfet_01v8__model L=0.15U W=0.65U PS=0U PD=0U nrs=0 nrd=0 sa=0 
+ sb=0 sd=0 nf=1 
M_08198__0_sky130_fd_pr__pfet_01v8_hvt VPWR net215 VGND VPWR 
+ sky130_fd_pr__pfet_01v8_hvt__model L=0.15U W=1U PS=0U PD=0U nrs=0 nrd=0 sa=0 
+ sb=0 sd=0 nf=1 
M_07781__3_sky130_fd_pr__nfet_01v8 VGND net215 VPWR VGND 
+ sky130_fd_pr__nfet_01v8__model L=0.15U W=0.65U PS=0U PD=0U nrs=0 nrd=0 sa=0 
+ sb=0 sd=0 nf=1 
M_07781__0_sky130_fd_pr__pfet_01v8_hvt VGND net215 VPWR VPWR 
+ sky130_fd_pr__pfet_01v8_hvt__model L=0.15U W=1U PS=0U PD=0U nrs=0 nrd=0 sa=0 
+ sb=0 sd=0 nf=1 
M_15169__12_sky130_fd_pr__pfet_01v8_hvt VPWR VPWR net215 VPWR 
+ sky130_fd_pr__pfet_01v8_hvt__model L=0.15U W=1U PS=0U PD=0U nrs=0 nrd=0 sa=0 
+ sb=0 sd=0 nf=1 
M_15169__2_sky130_fd_pr__nfet_01v8 net215 VGND VGND VGND 
+ sky130_fd_pr__nfet_01v8__model L=0.15U W=0.65U PS=0U PD=0U nrs=0 nrd=0 sa=0 
+ sb=0 sd=0 nf=1 
M_08367__5_sky130_fd_pr__nfet_01v8 VGND net215 VPWR VGND 
+ sky130_fd_pr__nfet_01v8__model L=0.15U W=0.42U PS=0U PD=0U nrs=0 nrd=0 sa=0 
+ sb=0 sd=0 nf=1 
M_08367__4_sky130_fd_pr__pfet_01v8_hvt VGND net215 VPWR VPWR 
+ sky130_fd_pr__pfet_01v8_hvt__model L=0.15U W=0.42U PS=0U PD=0U nrs=0 nrd=0 
+ sa=0 sb=0 sd=0 nf=1 
M_12513__6_sky130_fd_pr__pfet_01v8_hvt VGND net215 VPWR VPWR 
+ sky130_fd_pr__pfet_01v8_hvt__model L=0.15U W=0.42U PS=0U PD=0U nrs=0 nrd=0 
+ sa=0 sb=0 sd=0 nf=1 
M_12513__1_sky130_fd_pr__nfet_01v8 VGND net215 VPWR VGND 
+ sky130_fd_pr__nfet_01v8__model L=0.15U W=0.42U PS=0U PD=0U nrs=0 nrd=0 sa=0 
+ sb=0 sd=0 nf=1 
M_08093__3_sky130_fd_pr__nfet_01v8 VPWR _02657_ VGND VGND 
+ sky130_fd_pr__nfet_01v8__model L=0.15U W=0.42U PS=0U PD=0U nrs=0 nrd=0 sa=0 
+ sb=0 sd=0 nf=1 
M_08093__0_sky130_fd_pr__pfet_01v8_hvt VGND _02657_ VPWR VPWR 
+ sky130_fd_pr__pfet_01v8_hvt__model L=0.15U W=0.42U PS=0U PD=0U nrs=0 nrd=0 
+ sa=0 sb=0 sd=0 nf=1 
M_08057__5_sky130_fd_pr__pfet_01v8_hvt VGND _02657_ VPWR VPWR 
+ sky130_fd_pr__pfet_01v8_hvt__model L=0.15U W=1U PS=0U PD=0U nrs=0 nrd=0 sa=0 
+ sb=0 sd=0 nf=1 
M_08057__4_sky130_fd_pr__nfet_01v8 VPWR _02657_ VGND VGND 
+ sky130_fd_pr__nfet_01v8__model L=0.15U W=0.65U PS=0U PD=0U nrs=0 nrd=0 sa=0 
+ sb=0 sd=0 nf=1 
M_08068__9_sky130_fd_pr__pfet_01v8_hvt VGND _02657_ VPWR VPWR 
+ sky130_fd_pr__pfet_01v8_hvt__model L=0.15U W=1U PS=0U PD=0U nrs=0 nrd=0 sa=0 
+ sb=0 sd=0 nf=1 
M_08068__7_sky130_fd_pr__nfet_01v8 VGND _02657_ VPWR VGND 
+ sky130_fd_pr__nfet_01v8__model L=0.15U W=0.65U PS=0U PD=0U nrs=0 nrd=0 sa=0 
+ sb=0 sd=0 nf=1 
M_08046__2_sky130_fd_pr__nfet_01v8 VGND _02657_ VPWR VGND 
+ sky130_fd_pr__nfet_01v8__model L=0.15U W=0.65U PS=0U PD=0U nrs=0 nrd=0 sa=0 
+ sb=0 sd=0 nf=1 
M_08046__1_sky130_fd_pr__pfet_01v8_hvt VPWR _02657_ VGND VPWR 
+ sky130_fd_pr__pfet_01v8_hvt__model L=0.15U W=1U PS=0U PD=0U nrs=0 nrd=0 sa=0 
+ sb=0 sd=0 nf=1 
M_08285__13_sky130_fd_pr__nfet_01v8 VPWR _02876_ VGND VGND 
+ sky130_fd_pr__nfet_01v8__model L=0.15U W=0.65U PS=0U PD=0U nrs=0 nrd=0 sa=0 
+ sb=0 sd=0 nf=1 
M_08285__7_sky130_fd_pr__pfet_01v8_hvt VGND _02876_ VPWR VPWR 
+ sky130_fd_pr__pfet_01v8_hvt__model L=0.15U W=1U PS=0U PD=0U nrs=0 nrd=0 sa=0 
+ sb=0 sd=0 nf=1 
M_08294__4_sky130_fd_pr__nfet_01v8 VPWR _02876_ VGND VGND 
+ sky130_fd_pr__nfet_01v8__model L=0.15U W=0.42U PS=0U PD=0U nrs=0 nrd=0 sa=0 
+ sb=0 sd=0 nf=1 
M_08294__3_sky130_fd_pr__pfet_01v8_hvt VGND _02876_ VPWR VPWR 
+ sky130_fd_pr__pfet_01v8_hvt__model L=0.15U W=0.42U PS=0U PD=0U nrs=0 nrd=0 
+ sa=0 sb=0 sd=0 nf=1 
M_08306__8_sky130_fd_pr__pfet_01v8_hvt VGND _02894_ VPWR VPWR 
+ sky130_fd_pr__pfet_01v8_hvt__model L=0.15U W=1U PS=0U PD=0U nrs=0 nrd=0 sa=0 
+ sb=0 sd=0 nf=1 
M_08306__2_sky130_fd_pr__nfet_01v8 VGND _02894_ VPWR VGND 
+ sky130_fd_pr__nfet_01v8__model L=0.15U W=0.65U PS=0U PD=0U nrs=0 nrd=0 sa=0 
+ sb=0 sd=0 nf=1 
M_08240__6_sky130_fd_pr__pfet_01v8_hvt _08240__a_27_297 _02836_ VPWR VPWR 
+ sky130_fd_pr__pfet_01v8_hvt__model L=0.15U W=1U PS=0U PD=0U nrs=0 nrd=0 sa=0 
+ sb=0 sd=0 nf=1 
M_08240__17_sky130_fd_pr__nfet_01v8 _08240__a_27_297 _02836_ _08240__a_27_47 
+ VGND sky130_fd_pr__nfet_01v8__model L=0.15U W=0.65U PS=0U PD=0U nrs=0 nrd=0 
+ sa=0 sb=0 sd=0 nf=1 
MnFct_08240__17_sky130_fd_pr__nfet_01v8 VGND VGND _08240__a_27_47 VGND 
+ sky130_fd_pr__nfet_01v8__model L=0.15U W=0.65U PS=0U PD=0U nrs=0 nrd=0 sa=0 
+ sb=0 sd=0 nf=1 
M_08240__14_sky130_fd_pr__nfet_01v8 _08240__a_27_47 _02836_ _08240__a_27_297 
+ VGND sky130_fd_pr__nfet_01v8__model L=0.15U W=0.65U PS=0U PD=0U nrs=0 nrd=0 
+ sa=0 sb=0 sd=0 nf=1 
MnFct_08240__14_sky130_fd_pr__nfet_01v8 _08240__a_27_47 VGND VGND VGND 
+ sky130_fd_pr__nfet_01v8__model L=0.15U W=0.65U PS=0U PD=0U nrs=0 nrd=0 sa=0 
+ sb=0 sd=0 nf=1 
M_08240__0_sky130_fd_pr__pfet_01v8_hvt VPWR _02836_ _08240__a_27_297 VPWR 
+ sky130_fd_pr__pfet_01v8_hvt__model L=0.15U W=1U PS=0U PD=0U nrs=0 nrd=0 sa=0 
+ sb=0 sd=0 nf=1 
M_08250__8_sky130_fd_pr__nfet_01v8 VPWR _02837_ VGND VGND 
+ sky130_fd_pr__nfet_01v8__model L=0.15U W=0.65U PS=0U PD=0U nrs=0 nrd=0 sa=0 
+ sb=0 sd=0 nf=1 
M_08250__2_sky130_fd_pr__pfet_01v8_hvt VPWR _02837_ VGND VPWR 
+ sky130_fd_pr__pfet_01v8_hvt__model L=0.15U W=1U PS=0U PD=0U nrs=0 nrd=0 sa=0 
+ sb=0 sd=0 nf=1 
M_08249__4_sky130_fd_pr__pfet_01v8_hvt VGND _02837_ VPWR VPWR 
+ sky130_fd_pr__pfet_01v8_hvt__model L=0.15U W=0.42U PS=0U PD=0U nrs=0 nrd=0 
+ sa=0 sb=0 sd=0 nf=1 
M_08249__2_sky130_fd_pr__nfet_01v8 VGND _02837_ VPWR VGND 
+ sky130_fd_pr__nfet_01v8__model L=0.15U W=0.42U PS=0U PD=0U nrs=0 nrd=0 sa=0 
+ sb=0 sd=0 nf=1 
M_08240__4_sky130_fd_pr__pfet_01v8_hvt _08240__a_27_297 net218 VPWR VPWR 
+ sky130_fd_pr__pfet_01v8_hvt__model L=0.15U W=1U PS=0U PD=0U nrs=0 nrd=0 sa=0 
+ sb=0 sd=0 nf=1 
M_08240__9_sky130_fd_pr__nfet_01v8 VPWR net218 VGND VGND 
+ sky130_fd_pr__nfet_01v8__model L=0.15U W=0.65U PS=0U PD=0U nrs=0 nrd=0 sa=0 
+ sb=0 sd=0 nf=1 
M_15172__8_sky130_fd_pr__nfet_01v8 VGND VGND net218 VGND 
+ sky130_fd_pr__nfet_01v8__model L=0.15U W=0.65U PS=0U PD=0U nrs=0 nrd=0 sa=0 
+ sb=0 sd=0 nf=1 
M_15172__24_sky130_fd_pr__nfet_01v8 VGND VGND net218 VGND 
+ sky130_fd_pr__nfet_01v8__model L=0.15U W=0.65U PS=0U PD=0U nrs=0 nrd=0 sa=0 
+ sb=0 sd=0 nf=1 
M_15172__20_sky130_fd_pr__nfet_01v8 net218 VGND VGND VGND 
+ sky130_fd_pr__nfet_01v8__model L=0.15U W=0.65U PS=0U PD=0U nrs=0 nrd=0 sa=0 
+ sb=0 sd=0 nf=1 
M_15172__7_sky130_fd_pr__pfet_01v8_hvt net218 VPWR VPWR VPWR 
+ sky130_fd_pr__pfet_01v8_hvt__model L=0.15U W=1U PS=0U PD=0U nrs=0 nrd=0 sa=0 
+ sb=0 sd=0 nf=1 
M_15172__5_sky130_fd_pr__pfet_01v8_hvt VPWR VPWR net218 VPWR 
+ sky130_fd_pr__pfet_01v8_hvt__model L=0.15U W=1U PS=0U PD=0U nrs=0 nrd=0 sa=0 
+ sb=0 sd=0 nf=1 
M_15172__29_sky130_fd_pr__pfet_01v8_hvt net218 VPWR VPWR VPWR 
+ sky130_fd_pr__pfet_01v8_hvt__model L=0.15U W=1U PS=0U PD=0U nrs=0 nrd=0 sa=0 
+ sb=0 sd=0 nf=1 
M_07804__6_sky130_fd_pr__pfet_01v8_hvt VPWR net218 VGND VPWR 
+ sky130_fd_pr__pfet_01v8_hvt__model L=0.15U W=0.42U PS=0U PD=0U nrs=0 nrd=0 
+ sa=0 sb=0 sd=0 nf=1 
M_07804__1_sky130_fd_pr__nfet_01v8 VPWR net218 VGND VGND 
+ sky130_fd_pr__nfet_01v8__model L=0.15U W=0.42U PS=0U PD=0U nrs=0 nrd=0 sa=0 
+ sb=0 sd=0 nf=1 
M_15172__12_sky130_fd_pr__pfet_01v8_hvt VPWR VPWR net218 VPWR 
+ sky130_fd_pr__pfet_01v8_hvt__model L=0.15U W=1U PS=0U PD=0U nrs=0 nrd=0 sa=0 
+ sb=0 sd=0 nf=1 
M_15172__2_sky130_fd_pr__nfet_01v8 net218 VGND VGND VGND 
+ sky130_fd_pr__nfet_01v8__model L=0.15U W=0.65U PS=0U PD=0U nrs=0 nrd=0 sa=0 
+ sb=0 sd=0 nf=1 
M_08373__5_sky130_fd_pr__nfet_01v8 VGND net218 VPWR VGND 
+ sky130_fd_pr__nfet_01v8__model L=0.15U W=0.42U PS=0U PD=0U nrs=0 nrd=0 sa=0 
+ sb=0 sd=0 nf=1 
M_08373__4_sky130_fd_pr__pfet_01v8_hvt VGND net218 VPWR VPWR 
+ sky130_fd_pr__pfet_01v8_hvt__model L=0.15U W=0.42U PS=0U PD=0U nrs=0 nrd=0 
+ sa=0 sb=0 sd=0 nf=1 
Moutput218_5_sky130_fd_pr__nfet_01v8 VPWR net218 VGND VGND 
+ sky130_fd_pr__nfet_01v8__model L=0.15U W=0.42U PS=0U PD=0U nrs=0 nrd=0 sa=0 
+ sb=0 sd=0 nf=1 
Moutput218_1_sky130_fd_pr__pfet_01v8_hvt VGND net218 VPWR VPWR 
+ sky130_fd_pr__pfet_01v8_hvt__model L=0.15U W=0.64U PS=0U PD=0U nrs=0 nrd=0 
+ sa=0 sb=0 sd=0 nf=1 
M_08246__6_sky130_fd_pr__pfet_01v8_hvt VGND net218 VPWR VPWR 
+ sky130_fd_pr__pfet_01v8_hvt__model L=0.15U W=1U PS=0U PD=0U nrs=0 nrd=0 sa=0 
+ sb=0 sd=0 nf=1 
M_08246__5_sky130_fd_pr__nfet_01v8 VPWR net218 VGND VGND 
+ sky130_fd_pr__nfet_01v8__model L=0.15U W=0.65U PS=0U PD=0U nrs=0 nrd=0 sa=0 
+ sb=0 sd=0 nf=1 
M_08245__8_sky130_fd_pr__pfet_01v8_hvt VGND net218 VPWR VPWR 
+ sky130_fd_pr__pfet_01v8_hvt__model L=0.15U W=1U PS=0U PD=0U nrs=0 nrd=0 sa=0 
+ sb=0 sd=0 nf=1 
M_08245__2_sky130_fd_pr__nfet_01v8 VGND net218 VPWR VGND 
+ sky130_fd_pr__nfet_01v8__model L=0.15U W=0.65U PS=0U PD=0U nrs=0 nrd=0 sa=0 
+ sb=0 sd=0 nf=1 
M_08244__4_sky130_fd_pr__pfet_01v8_hvt VPWR net218 VGND VPWR 
+ sky130_fd_pr__pfet_01v8_hvt__model L=0.15U W=1U PS=0U PD=0U nrs=0 nrd=0 sa=0 
+ sb=0 sd=0 nf=1 
M_08244__0_sky130_fd_pr__nfet_01v8 VPWR net218 VGND VGND 
+ sky130_fd_pr__nfet_01v8__model L=0.15U W=0.65U PS=0U PD=0U nrs=0 nrd=0 sa=0 
+ sb=0 sd=0 nf=1 
M_08240__7_sky130_fd_pr__nfet_01v8 VGND net218 VPWR VGND 
+ sky130_fd_pr__nfet_01v8__model L=0.15U W=0.65U PS=0U PD=0U nrs=0 nrd=0 sa=0 
+ sb=0 sd=0 nf=1 
M_08240__2_sky130_fd_pr__pfet_01v8_hvt VPWR net218 _08240__a_27_297 VPWR 
+ sky130_fd_pr__pfet_01v8_hvt__model L=0.15U W=1U PS=0U PD=0U nrs=0 nrd=0 sa=0 
+ sb=0 sd=0 nf=1 
M_07775__7_sky130_fd_pr__nfet_01v8 VGND net218 VPWR VGND 
+ sky130_fd_pr__nfet_01v8__model L=0.15U W=0.65U PS=0U PD=0U nrs=0 nrd=0 sa=0 
+ sb=0 sd=0 nf=1 
M_07775__5_sky130_fd_pr__pfet_01v8_hvt VGND net218 VPWR VPWR 
+ sky130_fd_pr__pfet_01v8_hvt__model L=0.15U W=1U PS=0U PD=0U nrs=0 nrd=0 sa=0 
+ sb=0 sd=0 nf=1 
M_07775__3_sky130_fd_pr__pfet_01v8_hvt VGND net218 VPWR VPWR 
+ sky130_fd_pr__pfet_01v8_hvt__model L=0.15U W=1U PS=0U PD=0U nrs=0 nrd=0 sa=0 
+ sb=0 sd=0 nf=1 