* Spice description of arlet6502_cts_r
* Spice driver version -777225304
* Date ( dd/mm/yyyy hh:mm:ss ):  7/06/2024 at  1:11:39

* INTERF a[0] a[1] a[2] a[3] a[4] a[5] a[6] a[7] a[8] a[9] a[10] a[11] a[12] 
* INTERF a[13] a[14] a[15] clk di[0] di[1] di[2] di[3] di[4] di[5] di[6] 
* INTERF di[7] do[0] do[1] do[2] do[3] do[4] do[5] do[6] do[7] irq nmi rdy 
* INTERF reset vdd vss we 


.subckt arlet6502_cts_r 3012 2081 2717 2024 2073 2003 4524 4240 3263 11039 11012 10977 10951 10917 10877 10847 5554 10901 10789 10620 9505 9316 8840 8064 6465 3425 2416 2427 1815 10081 8816 8017 6793 5811 2373 5611 5199 11024 11074 1877 
* NET 119 = subckt_1739_sff1_x4.sff_s
* NET 121 = subckt_1739_sff1_x4.y
* NET 123 = subckt_1739_sff1_x4.sff_m
* NET 124 = subckt_1739_sff1_x4.u
* NET 125 = subckt_1739_sff1_x4.ckr
* NET 126 = subckt_1739_sff1_x4.nckr
* NET 127 = subckt_1622_sff1_x4.sff_s
* NET 129 = subckt_1622_sff1_x4.y
* NET 130 = subckt_1622_sff1_x4.sff_m
* NET 133 = subckt_1622_sff1_x4.u
* NET 134 = subckt_1622_sff1_x4.ckr
* NET 135 = subckt_1622_sff1_x4.nckr
* NET 137 = subckt_1623_sff1_x4.sff_s
* NET 139 = subckt_1623_sff1_x4.y
* NET 141 = subckt_1623_sff1_x4.sff_m
* NET 142 = subckt_1623_sff1_x4.u
* NET 143 = subckt_1623_sff1_x4.ckr
* NET 144 = subckt_1623_sff1_x4.nckr
* NET 145 = abc_11867_auto_rtlil_cc_2608_muxgate_11616
* NET 150 = subckt_1637_sff1_x4.sff_s
* NET 153 = subckt_1637_sff1_x4.y
* NET 154 = subckt_1637_sff1_x4.sff_m
* NET 155 = subckt_1637_sff1_x4.u
* NET 157 = subckt_1637_sff1_x4.ckr
* NET 158 = subckt_1637_sff1_x4.nckr
* NET 160 = subckt_1650_sff1_x4.sff_s
* NET 162 = subckt_1650_sff1_x4.y
* NET 164 = subckt_1650_sff1_x4.sff_m
* NET 165 = subckt_1650_sff1_x4.u
* NET 166 = subckt_1650_sff1_x4.ckr
* NET 167 = subckt_1650_sff1_x4.nckr
* NET 169 = subckt_1632_sff1_x4.sff_s
* NET 170 = subckt_1632_sff1_x4.y
* NET 173 = subckt_1632_sff1_x4.sff_m
* NET 174 = subckt_1632_sff1_x4.u
* NET 175 = subckt_1632_sff1_x4.ckr
* NET 176 = subckt_1632_sff1_x4.nckr
* NET 177 = subckt_1647_sff1_x4.sff_s
* NET 179 = subckt_1647_sff1_x4.y
* NET 180 = subckt_1647_sff1_x4.sff_m
* NET 183 = subckt_1647_sff1_x4.u
* NET 184 = subckt_1647_sff1_x4.ckr
* NET 185 = subckt_1647_sff1_x4.nckr
* NET 187 = subckt_1617_sff1_x4.sff_s
* NET 188 = subckt_1617_sff1_x4.y
* NET 190 = subckt_1617_sff1_x4.sff_m
* NET 192 = subckt_1617_sff1_x4.u
* NET 193 = subckt_1617_sff1_x4.ckr
* NET 194 = subckt_1617_sff1_x4.nckr
* NET 195 = abc_11867_auto_rtlil_cc_2608_muxgate_11604
* NET 200 = subckt_1631_sff1_x4.sff_s
* NET 202 = subckt_1631_sff1_x4.y
* NET 203 = subckt_1631_sff1_x4.sff_m
* NET 206 = subckt_1631_sff1_x4.u
* NET 207 = subckt_1631_sff1_x4.ckr
* NET 208 = subckt_1631_sff1_x4.nckr
* NET 213 = abc_11867_new_n872
* NET 215 = abc_11867_new_n871
* NET 217 = abc_11867_new_n877
* NET 219 = abc_11867_new_n860
* NET 220 = abc_11867_new_n878
* NET 223 = subckt_1655_sff1_x4.sff_s
* NET 224 = subckt_1655_sff1_x4.y
* NET 227 = subckt_1655_sff1_x4.sff_m
* NET 228 = subckt_1655_sff1_x4.u
* NET 229 = subckt_1655_sff1_x4.ckr
* NET 230 = subckt_1655_sff1_x4.nckr
* NET 231 = abc_11867_auto_rtlil_cc_2608_muxgate_11670
* NET 238 = abc_11867_new_n608
* NET 241 = abc_11867_new_n1175
* NET 244 = mos6502_nmi_1
* NET 246 = subckt_1656_sff1_x4.sff_s
* NET 247 = subckt_1656_sff1_x4.y
* NET 250 = subckt_1656_sff1_x4.sff_m
* NET 251 = subckt_1656_sff1_x4.u
* NET 252 = subckt_1656_sff1_x4.ckr
* NET 253 = subckt_1656_sff1_x4.nckr
* NET 311 = subckt_1653_sff1_x4.sff_s
* NET 312 = subckt_1653_sff1_x4.y
* NET 316 = subckt_1653_sff1_x4.sff_m
* NET 317 = subckt_1653_sff1_x4.ckr
* NET 318 = subckt_1653_sff1_x4.u
* NET 319 = subckt_1653_sff1_x4.nckr
* NET 320 = abc_11867_auto_rtlil_cc_2608_muxgate_11664
* NET 329 = abc_11867_auto_rtlil_cc_2608_muxgate_11614
* NET 338 = mos6502_axys_2_6
* NET 341 = mos6502_axys_3_6
* NET 347 = abc_11867_auto_rtlil_cc_2608_muxgate_11632
* NET 348 = mos6502_axys_0_6
* NET 358 = subckt_1648_sff1_x4.sff_s
* NET 360 = subckt_1648_sff1_x4.y
* NET 364 = subckt_1648_sff1_x4.sff_m
* NET 365 = subckt_1648_sff1_x4.u
* NET 366 = subckt_1648_sff1_x4.ckr
* NET 367 = subckt_1648_sff1_x4.nckr
* NET 368 = abc_11867_auto_rtlil_cc_2608_muxgate_11654
* NET 377 = abc_11867_auto_rtlil_cc_2608_muxgate_11622
* NET 388 = subckt_1634_sff1_x4.sff_s
* NET 389 = subckt_1634_sff1_x4.y
* NET 393 = subckt_1634_sff1_x4.sff_m
* NET 394 = subckt_1634_sff1_x4.ckr
* NET 395 = subckt_1634_sff1_x4.u
* NET 396 = subckt_1634_sff1_x4.nckr
* NET 397 = abc_11867_auto_rtlil_cc_2608_muxgate_11652
* NET 407 = subckt_1649_sff1_x4.sff_s
* NET 411 = subckt_1649_sff1_x4.y
* NET 412 = subckt_1649_sff1_x4.sff_m
* NET 414 = subckt_1649_sff1_x4.ckr
* NET 415 = subckt_1649_sff1_x4.u
* NET 416 = subckt_1649_sff1_x4.nckr
* NET 419 = abc_11867_auto_rtlil_cc_2608_muxgate_11620
* NET 428 = subckt_1633_sff1_x4.sff_s
* NET 429 = subckt_1633_sff1_x4.y
* NET 432 = subckt_1633_sff1_x4.sff_m
* NET 434 = subckt_1633_sff1_x4.u
* NET 435 = subckt_1633_sff1_x4.ckr
* NET 436 = subckt_1633_sff1_x4.nckr
* NET 437 = abc_11867_new_n873
* NET 449 = abc_11867_new_n868
* NET 451 = abc_11867_new_n864
* NET 452 = abc_11867_new_n874
* NET 460 = abc_11867_new_n865
* NET 464 = abc_11867_new_n876
* NET 466 = abc_11867_new_n875
* NET 472 = abc_11867_new_n863
* NET 482 = abc_11867_new_n870
* NET 487 = abc_11867_new_n428
* NET 489 = abc_11867_new_n608_hfns_2
* NET 494 = abc_11867_new_n475
* NET 499 = abc_11867_new_n471
* NET 508 = abc_11867_new_n431_hfns_2
* NET 510 = abc_11867_new_n431
* NET 663 = subckt_1744_sff1_x4.sff_s
* NET 664 = subckt_1744_sff1_x4.y
* NET 666 = subckt_1744_sff1_x4.sff_m
* NET 668 = subckt_1744_sff1_x4.u
* NET 669 = subckt_1744_sff1_x4.ckr
* NET 670 = subckt_1744_sff1_x4.nckr
* NET 672 = subckt_1654_sff1_x4.sff_s
* NET 673 = subckt_1654_sff1_x4.y
* NET 676 = subckt_1654_sff1_x4.sff_m
* NET 677 = subckt_1654_sff1_x4.ckr
* NET 678 = subckt_1654_sff1_x4.u
* NET 679 = subckt_1654_sff1_x4.nckr
* NET 680 = subckt_1652_sff1_x4.sff_s
* NET 683 = subckt_1652_sff1_x4.y
* NET 684 = subckt_1652_sff1_x4.sff_m
* NET 686 = subckt_1652_sff1_x4.u
* NET 687 = subckt_1652_sff1_x4.ckr
* NET 688 = subckt_1652_sff1_x4.nckr
* NET 690 = abc_11867_auto_rtlil_cc_2608_muxgate_11662
* NET 691 = mos6502_axys_2_5
* NET 692 = mos6502_axys_3_5
* NET 699 = subckt_1620_sff1_x4.sff_s
* NET 700 = subckt_1620_sff1_x4.y
* NET 701 = subckt_1620_sff1_x4.sff_m
* NET 703 = subckt_1620_sff1_x4.u
* NET 704 = subckt_1620_sff1_x4.ckr
* NET 705 = subckt_1620_sff1_x4.nckr
* NET 706 = mos6502_axys_2_1
* NET 708 = mos6502_axys_0_1
* NET 711 = mos6502_axys_3_1
* NET 712 = subckt_1618_sff1_x4.sff_s
* NET 714 = subckt_1618_sff1_x4.y
* NET 717 = subckt_1618_sff1_x4.sff_m
* NET 718 = subckt_1618_sff1_x4.u
* NET 719 = subckt_1618_sff1_x4.ckr
* NET 720 = subckt_1618_sff1_x4.nckr
* NET 722 = abc_11867_auto_rtlil_cc_2608_muxgate_11606
* NET 723 = mos6502_axys_2_0
* NET 724 = mos6502_axys_3_0
* NET 726 = mos6502_axys_0_0
* NET 729 = mos6502_axys_0_2
* NET 734 = subckt_1619_sff1_x4.sff_s
* NET 735 = subckt_1619_sff1_x4.y
* NET 736 = subckt_1619_sff1_x4.sff_m
* NET 739 = subckt_1619_sff1_x4.u
* NET 740 = subckt_1619_sff1_x4.ckr
* NET 741 = subckt_1619_sff1_x4.nckr
* NET 743 = abc_11867_auto_rtlil_cc_2608_muxgate_11624
* NET 745 = abc_11867_new_n867
* NET 747 = abc_11867_new_n862
* NET 750 = abc_11867_new_n859
* NET 752 = abc_11867_new_n1411
* NET 753 = abc_11867_new_n857
* NET 756 = abc_11867_new_n476
* NET 759 = abc_11867_new_n856
* NET 762 = abc_11867_new_n475_hfns_3
* NET 767 = abc_11867_new_n490
* NET 770 = abc_11867_new_n482
* NET 773 = abc_11867_new_n430
* NET 859 = subckt_1756_sff1_x4.sff_s
* NET 860 = subckt_1756_sff1_x4.sff_m
* NET 861 = subckt_1756_sff1_x4.y
* NET 863 = subckt_1756_sff1_x4.ckr
* NET 864 = subckt_1756_sff1_x4.u
* NET 865 = subckt_1756_sff1_x4.nckr
* NET 867 = abc_11867_auto_rtlil_cc_2608_muxgate_11860
* NET 876 = abc_11867_auto_rtlil_cc_2608_muxgate_11666
* NET 884 = subckt_1624_sff1_x4.sff_s
* NET 885 = subckt_1624_sff1_x4.sff_m
* NET 886 = subckt_1624_sff1_x4.y
* NET 888 = subckt_1624_sff1_x4.ckr
* NET 889 = subckt_1624_sff1_x4.u
* NET 890 = subckt_1624_sff1_x4.nckr
* NET 892 = abc_11867_auto_rtlil_cc_2608_muxgate_11618
* NET 901 = mos6502_axys_2_7
* NET 902 = mos6502_axys_3_7
* NET 915 = subckt_1636_sff1_x4.sff_s
* NET 916 = mos6502_axys_0_5
* NET 917 = subckt_1636_sff1_x4.sff_m
* NET 920 = subckt_1636_sff1_x4.y
* NET 925 = abc_11867_auto_rtlil_cc_2608_muxgate_11630
* NET 926 = subckt_1636_sff1_x4.u
* NET 928 = subckt_1636_sff1_x4.ckr
* NET 929 = subckt_1636_sff1_x4.nckr
* NET 934 = abc_11867_auto_rtlil_cc_2608_muxgate_11658
* NET 951 = mos6502_axys_2_3
* NET 959 = mos6502_axys_0_3
* NET 963 = abc_11867_auto_rtlil_cc_2608_muxgate_11626
* NET 969 = subckt_1640_sff1_x4.sff_s
* NET 970 = subckt_1640_sff1_x4.sff_m
* NET 974 = subckt_1640_sff1_x4.y
* NET 978 = subckt_1640_sff1_x4.u
* NET 980 = subckt_1640_sff1_x4.ckr
* NET 981 = subckt_1640_sff1_x4.nckr
* NET 983 = abc_11867_auto_rtlil_cc_2608_muxgate_11656
* NET 984 = mos6502_axys_2_2
* NET 992 = subckt_1651_sff1_x4.sff_s
* NET 997 = subckt_1651_sff1_x4.sff_m
* NET 998 = subckt_1651_sff1_x4.y
* NET 1002 = subckt_1651_sff1_x4.ckr
* NET 1003 = subckt_1651_sff1_x4.u
* NET 1004 = subckt_1651_sff1_x4.nckr
* NET 1005 = mos6502_axys_3_2
* NET 1008 = abc_11867_auto_rtlil_cc_2608_muxgate_11608
* NET 1020 = subckt_1621_sff1_x4.sff_s
* NET 1022 = subckt_1621_sff1_x4.sff_m
* NET 1023 = subckt_1621_sff1_x4.y
* NET 1025 = abc_11867_auto_rtlil_cc_2608_muxgate_11612
* NET 1026 = subckt_1621_sff1_x4.ckr
* NET 1027 = subckt_1621_sff1_x4.u
* NET 1028 = subckt_1621_sff1_x4.nckr
* NET 1035 = abc_11867_new_n858
* NET 1040 = abc_11867_new_n1424
* NET 1041 = abc_11867_new_n1410
* NET 1042 = abc_11867_new_n640
* NET 1055 = abc_11867_new_n380
* NET 1061 = abc_11867_new_n654
* NET 1067 = abc_11867_new_n471_hfns_3
* NET 1075 = abc_11867_new_n482_hfns_2
* NET 1079 = abc_11867_new_n473
* NET 1195 = subckt_1748_sff1_x4.sff_s
* NET 1196 = subckt_1748_sff1_x4.y
* NET 1198 = subckt_1748_sff1_x4.sff_m
* NET 1200 = subckt_1748_sff1_x4.u
* NET 1201 = subckt_1748_sff1_x4.ckr
* NET 1202 = subckt_1748_sff1_x4.nckr
* NET 1210 = abc_11867_new_n1906
* NET 1213 = subckt_1646_sff1_x4.sff_s
* NET 1214 = subckt_1646_sff1_x4.y
* NET 1216 = subckt_1646_sff1_x4.sff_m
* NET 1218 = subckt_1646_sff1_x4.ckr
* NET 1219 = subckt_1646_sff1_x4.u
* NET 1220 = subckt_1646_sff1_x4.nckr
* NET 1222 = subckt_1644_sff1_x4.sff_s
* NET 1224 = subckt_1644_sff1_x4.y
* NET 1225 = subckt_1644_sff1_x4.sff_m
* NET 1227 = subckt_1644_sff1_x4.u
* NET 1228 = subckt_1644_sff1_x4.ckr
* NET 1229 = subckt_1644_sff1_x4.nckr
* NET 1230 = abc_11867_auto_rtlil_cc_2608_muxgate_11646
* NET 1235 = abc_11867_auto_rtlil_cc_2608_muxgate_11650
* NET 1244 = abc_11867_auto_rtlil_cc_2608_muxgate_11610
* NET 1245 = mos6502_axys_3_3
* NET 1248 = abc_11867_new_n1103
* NET 1252 = subckt_1642_sff1_x4.sff_s
* NET 1253 = subckt_1642_sff1_x4.y
* NET 1256 = subckt_1642_sff1_x4.sff_m
* NET 1257 = subckt_1642_sff1_x4.u
* NET 1258 = subckt_1642_sff1_x4.nckr
* NET 1259 = subckt_1642_sff1_x4.ckr
* NET 1260 = abc_11867_auto_rtlil_cc_2608_muxgate_11638
* NET 1265 = abc_11867_auto_rtlil_cc_2608_muxgate_11660
* NET 1268 = abc_11867_new_n1166
* NET 1272 = subckt_1635_sff1_x4.sff_s
* NET 1274 = subckt_1635_sff1_x4.y
* NET 1276 = subckt_1635_sff1_x4.sff_m
* NET 1277 = subckt_1635_sff1_x4.u
* NET 1278 = subckt_1635_sff1_x4.ckr
* NET 1279 = subckt_1635_sff1_x4.nckr
* NET 1280 = abc_11867_auto_rtlil_cc_2608_muxgate_11628
* NET 1284 = abc_11867_new_n1148
* NET 1287 = abc_11867_new_n1421
* NET 1288 = abc_11867_new_n1426
* NET 1291 = abc_11867_new_n1409
* NET 1292 = abc_11867_new_n1407
* NET 1293 = abc_11867_new_n1412
* NET 1300 = abc_11867_new_n1423
* NET 1301 = abc_11867_new_n1425
* NET 1302 = abc_11867_new_n663
* NET 1308 = abc_11867_new_n426
* NET 1310 = abc_11867_new_n490_hfns_2
* NET 1314 = abc_11867_new_n430_hfns_2
* NET 1363 = subckt_1645_sff1_x4.sff_s
* NET 1365 = subckt_1645_sff1_x4.y
* NET 1369 = subckt_1645_sff1_x4.u
* NET 1370 = subckt_1645_sff1_x4.sff_m
* NET 1372 = subckt_1645_sff1_x4.ckr
* NET 1373 = subckt_1645_sff1_x4.nckr
* NET 1376 = subckt_1738_sff1_x4.sff_s
* NET 1380 = subckt_1738_sff1_x4.y
* NET 1382 = subckt_1738_sff1_x4.sff_m
* NET 1384 = subckt_1738_sff1_x4.ckr
* NET 1385 = subckt_1738_sff1_x4.u
* NET 1386 = subckt_1738_sff1_x4.nckr
* NET 1388 = abc_11867_auto_rtlil_cc_2608_muxgate_11648
* NET 1396 = mos6502_axys_1_6
* NET 1401 = abc_11867_new_n1030
* NET 1403 = mos6502_axys_1_7
* NET 1409 = abc_11867_new_n1022
* NET 1415 = subckt_1721_sff1_x4.sff_s
* NET 1416 = subckt_1721_sff1_x4.y
* NET 1418 = subckt_1721_sff1_x4.sff_m
* NET 1420 = subckt_1721_sff1_x4.u
* NET 1421 = subckt_1721_sff1_x4.ckr
* NET 1422 = subckt_1721_sff1_x4.nckr
* NET 1423 = mos6502_axys_0_7
* NET 1424 = subckt_1638_sff1_x4.sff_s
* NET 1427 = subckt_1638_sff1_x4.y
* NET 1430 = subckt_1638_sff1_x4.sff_m
* NET 1431 = abc_11867_auto_rtlil_cc_2608_muxgate_11634
* NET 1433 = subckt_1638_sff1_x4.u
* NET 1434 = subckt_1638_sff1_x4.nckr
* NET 1435 = subckt_1638_sff1_x4.ckr
* NET 1437 = abc_11867_auto_rtlil_cc_2608_muxgate_11642
* NET 1445 = subckt_1639_sff1_x4.sff_s
* NET 1449 = subckt_1639_sff1_x4.y
* NET 1451 = subckt_1639_sff1_x4.sff_m
* NET 1453 = subckt_1639_sff1_x4.ckr
* NET 1454 = subckt_1639_sff1_x4.u
* NET 1455 = subckt_1639_sff1_x4.nckr
* NET 1456 = mos6502_axys_1_1
* NET 1461 = abc_11867_auto_rtlil_cc_2608_muxgate_11636
* NET 1472 = subckt_1643_sff1_x4.sff_s
* NET 1474 = subckt_1643_sff1_x4.y
* NET 1477 = subckt_1643_sff1_x4.sff_m
* NET 1479 = subckt_1643_sff1_x4.u
* NET 1480 = subckt_1643_sff1_x4.ckr
* NET 1481 = subckt_1643_sff1_x4.nckr
* NET 1489 = abc_11867_new_n881
* NET 1490 = mos6502_axys_2_4
* NET 1493 = mos6502_axys_0_4
* NET 1494 = abc_11867_new_n882
* NET 1495 = abc_11867_new_n883
* NET 1496 = mos6502_axys_3_4
* NET 1500 = abc_11867_new_n1414
* NET 1501 = abc_11867_new_n1427
* NET 1504 = abc_11867_new_n1102
* NET 1519 = abc_11867_new_n1101
* NET 1520 = abc_11867_new_n959
* NET 1528 = abc_11867_new_n1413
* NET 1529 = abc_11867_new_n639
* NET 1537 = abc_11867_new_n1100
* NET 1542 = abc_11867_new_n766
* NET 1545 = abc_11867_new_n861
* NET 1552 = abc_11867_new_n656
* NET 1556 = abc_11867_new_n517
* NET 1573 = abc_11867_new_n606
* NET 1574 = abc_11867_new_n602
* NET 1575 = abc_11867_new_n599
* NET 1583 = abc_11867_new_n605
* NET 1601 = abc_11867_new_n426_hfns_2
* NET 1610 = abc_11867_new_n473_hfns_3
* NET 1793 = abc_11867_new_n1914
* NET 1796 = abc_11867_new_n1907
* NET 1801 = abc_11867_new_n1909
* NET 1802 = abc_11867_new_n1723
* NET 1804 = abc_11867_new_n1724
* NET 1805 = abc_11867_new_n1910
* NET 1806 = abc_11867_new_n1920
* NET 1807 = abc_11867_new_n1913
* NET 1810 = abc_11867_new_n1725
* NET 1813 = mos6502_axys_1_5
* NET 1815 = do[3]
* NET 1816 = abc_11867_auto_rtlil_cc_2608_muxgate_11790
* NET 1822 = abc_11867_new_n909
* NET 1824 = abc_11867_new_n999
* NET 1826 = mos6502_axys_1_3
* NET 1834 = abc_11867_new_n917
* NET 1837 = abc_11867_new_n914
* NET 1839 = abc_11867_auto_rtlil_cc_2608_muxgate_11644
* NET 1841 = abc_11867_new_n1157
* NET 1844 = mos6502_axys_1_4
* NET 1847 = subckt_1717_sff1_x4.sff_s
* NET 1848 = subckt_1717_sff1_x4.y
* NET 1851 = subckt_1717_sff1_x4.sff_m
* NET 1852 = subckt_1717_sff1_x4.u
* NET 1853 = subckt_1717_sff1_x4.ckr
* NET 1854 = subckt_1717_sff1_x4.nckr
* NET 1855 = abc_11867_new_n915
* NET 1857 = abc_11867_new_n916
* NET 1861 = abc_11867_new_n479
* NET 1862 = abc_11867_new_n383
* NET 1864 = abc_11867_new_n951
* NET 1865 = abc_11867_new_n1467
* NET 1866 = abc_11867_new_n1668
* NET 1867 = abc_11867_new_n1422
* NET 1868 = abc_11867_new_n1408
* NET 1870 = abc_11867_new_n1434
* NET 1871 = abc_11867_new_n855
* NET 1873 = abc_11867_new_n658
* NET 1874 = abc_11867_new_n966
* NET 1877 = we
* NET 1881 = abc_11867_new_n524
* NET 1884 = abc_11867_new_n690
* NET 1886 = abc_11867_new_n689
* NET 1890 = abc_11867_new_n641
* NET 1893 = abc_11867_new_n638
* NET 1898 = abc_11867_new_n659
* NET 1899 = abc_11867_new_n660
* NET 1958 = abc_11867_new_n1357
* NET 1964 = abc_11867_new_n1720
* NET 1973 = abc_11867_new_n1718
* NET 1991 = abc_11867_new_n1670
* NET 1993 = abc_11867_new_n1676
* NET 2000 = abc_11867_new_n1014
* NET 2003 = a[5]
* NET 2004 = abc_11867_new_n942
* NET 2006 = abc_11867_new_n943
* NET 2009 = subckt_1719_sff1_x4.sff_s
* NET 2011 = subckt_1719_sff1_x4.y
* NET 2014 = subckt_1719_sff1_x4.sff_m
* NET 2016 = subckt_1719_sff1_x4.u
* NET 2017 = subckt_1719_sff1_x4.ckr
* NET 2018 = subckt_1719_sff1_x4.nckr
* NET 2019 = abc_11867_auto_rtlil_cc_2608_muxgate_11786
* NET 2024 = a[3]
* NET 2035 = abc_11867_new_n983
* NET 2038 = mos6502_axys_1_2
* NET 2039 = subckt_1641_sff1_x4.sff_s
* NET 2043 = subckt_1641_sff1_x4.y
* NET 2046 = subckt_1641_sff1_x4.sff_m
* NET 2047 = abc_11867_auto_rtlil_cc_2608_muxgate_11640
* NET 2048 = subckt_1641_sff1_x4.ckr
* NET 2049 = subckt_1641_sff1_x4.u
* NET 2050 = subckt_1641_sff1_x4.nckr
* NET 2053 = subckt_1720_sff1_x4.sff_s
* NET 2054 = subckt_1720_sff1_x4.y
* NET 2057 = subckt_1720_sff1_x4.sff_m
* NET 2059 = subckt_1720_sff1_x4.u
* NET 2060 = subckt_1720_sff1_x4.ckr
* NET 2061 = subckt_1720_sff1_x4.nckr
* NET 2062 = abc_11867_auto_rtlil_cc_2608_muxgate_11788
* NET 2073 = a[4]
* NET 2074 = abc_11867_auto_rtlil_cc_2608_muxgate_11782
* NET 2081 = a[1]
* NET 2090 = abc_11867_new_n1420
* NET 2093 = abc_11867_new_n1417
* NET 2094 = abc_11867_new_n1415
* NET 2098 = abc_11867_new_n1418
* NET 2099 = abc_11867_new_n604
* NET 2102 = abc_11867_new_n1465
* NET 2104 = abc_11867_new_n1466
* NET 2105 = abc_11867_new_n1468
* NET 2109 = abc_11867_new_n965
* NET 2114 = abc_11867_new_n768
* NET 2119 = abc_11867_new_n1667
* NET 2121 = abc_11867_new_n598
* NET 2133 = abc_11867_new_n608_hfns_1
* NET 2138 = abc_11867_new_n509
* NET 2140 = abc_11867_new_n484
* NET 2147 = abc_11867_new_n774
* NET 2158 = abc_11867_new_n777
* NET 2165 = abc_11867_new_n613
* NET 2166 = abc_11867_new_n567
* NET 2167 = abc_11867_new_n603
* NET 2168 = abc_11867_new_n691
* NET 2172 = abc_11867_new_n580
* NET 2177 = abc_11867_new_n578
* NET 2203 = abc_11867_new_n725
* NET 2208 = abc_11867_new_n657
* NET 2209 = abc_11867_new_n652
* NET 2211 = abc_11867_new_n726
* NET 2212 = abc_11867_new_n729
* NET 2213 = abc_11867_new_n730
* NET 2216 = subckt_1630_sff1_x4.y
* NET 2217 = subckt_1630_sff1_x4.sff_s
* NET 2221 = subckt_1630_sff1_x4.sff_m
* NET 2222 = subckt_1630_sff1_x4.ckr
* NET 2223 = subckt_1630_sff1_x4.u
* NET 2224 = subckt_1630_sff1_x4.nckr
* NET 2373 = nmi
* NET 2375 = subckt_1749_sff1_x4.sff_s
* NET 2376 = subckt_1749_sff1_x4.y
* NET 2378 = subckt_1749_sff1_x4.sff_m
* NET 2380 = subckt_1749_sff1_x4.u
* NET 2381 = subckt_1749_sff1_x4.ckr
* NET 2382 = subckt_1749_sff1_x4.nckr
* NET 2384 = abc_11867_new_n1717
* NET 2385 = abc_11867_new_n1740
* NET 2393 = abc_11867_new_n1728
* NET 2401 = abc_11867_new_n1760
* NET 2403 = abc_11867_new_n1699
* NET 2406 = abc_11867_new_n1698
* NET 2412 = abc_11867_new_n927
* NET 2413 = abc_11867_new_n926
* NET 2415 = abc_11867_new_n895
* NET 2416 = do[1]
* NET 2417 = abc_11867_new_n935
* NET 2418 = abc_11867_new_n936
* NET 2420 = spare_buffer_19.q
* NET 2426 = abc_11867_new_n902
* NET 2427 = do[2]
* NET 2432 = mos6502_axys_1_0
* NET 2434 = abc_11867_new_n893
* NET 2435 = abc_11867_new_n894
* NET 2440 = subckt_1718_sff1_x4.sff_s
* NET 2441 = subckt_1718_sff1_x4.y
* NET 2442 = subckt_1718_sff1_x4.sff_m
* NET 2444 = subckt_1718_sff1_x4.u
* NET 2446 = clk_root_tr_2
* NET 2447 = subckt_1718_sff1_x4.nckr
* NET 2448 = subckt_1718_sff1_x4.ckr
* NET 2450 = abc_11867_new_n954
* NET 2452 = abc_11867_new_n953
* NET 2454 = abc_11867_new_n949
* NET 2456 = abc_11867_new_n1419
* NET 2459 = abc_11867_new_n1429
* NET 2462 = abc_11867_new_n1688
* NET 2464 = abc_11867_new_n1442
* NET 2466 = abc_11867_new_n1435
* NET 2469 = abc_11867_new_n1436
* NET 2470 = abc_11867_new_n625
* NET 2472 = abc_11867_new_n500
* NET 2473 = mos6502_state[5]
* NET 2474 = abc_11867_new_n429
* NET 2480 = abc_11867_new_n569
* NET 2481 = reset_root_tl_0
* NET 2483 = spare_buffer_14.q
* NET 2487 = abc_11867_new_n809
* NET 2490 = abc_11867_new_n829
* NET 2491 = abc_11867_new_n830
* NET 2492 = abc_11867_new_n832
* NET 2493 = abc_11867_new_n831
* NET 2495 = abc_11867_new_n775
* NET 2499 = abc_11867_new_n665
* NET 2500 = abc_11867_new_n664
* NET 2554 = subckt_1740_sff1_x4.y
* NET 2555 = subckt_1740_sff1_x4.sff_m
* NET 2572 = abc_11867_new_n583
* NET 2575 = abc_11867_new_n1437
* NET 2576 = abc_11867_new_n1441
* NET 2578 = abc_11867_new_n565
* NET 2581 = abc_11867_new_n581
* NET 2582 = abc_11867_new_n584
* NET 2589 = abc_11867_new_n644
* NET 2590 = abc_11867_new_n645
* NET 2592 = abc_11867_new_n823
* NET 2597 = abc_11867_new_n825
* NET 2601 = abc_11867_new_n525
* NET 2602 = abc_11867_new_n521
* NET 2609 = abc_11867_new_n1598
* NET 2610 = abc_11867_auto_rtlil_cc_2608_muxgate_11836
* NET 2614 = subckt_1740_sff1_x4.sff_s
* NET 2622 = subckt_1740_sff1_x4.nckr
* NET 2623 = subckt_1740_sff1_x4.ckr
* NET 2624 = subckt_1740_sff1_x4.u
* NET 2630 = abc_11867_new_n1745
* NET 2632 = abc_11867_new_n1739
* NET 2636 = abc_11867_new_n1908
* NET 2637 = abc_11867_new_n1746
* NET 2640 = abc_11867_new_n1738
* NET 2646 = abc_11867_new_n1697
* NET 2657 = abc_11867_new_n1696
* NET 2673 = clk_root_tr_1
* NET 2679 = abc_11867_new_n1912
* NET 2680 = abc_11867_new_n907
* NET 2681 = abc_11867_new_n908
* NET 2688 = abc_11867_new_n1669
* NET 2691 = abc_11867_new_n900
* NET 2692 = abc_11867_new_n901
* NET 2693 = abc_11867_new_n991
* NET 2697 = abc_11867_new_n954_hfns_2
* NET 2709 = abc_11867_auto_rtlil_cc_2608_muxgate_11784
* NET 2717 = a[2]
* NET 2727 = abc_11867_new_n1687
* NET 2728 = abc_11867_new_n530
* NET 2736 = abc_11867_new_n600
* NET 2741 = abc_11867_new_n563
* NET 2746 = abc_11867_new_n958
* NET 2750 = abc_11867_new_n1430
* NET 2752 = abc_11867_new_n1440
* NET 2753 = abc_11867_new_n850
* NET 2761 = abc_11867_new_n851
* NET 2763 = abc_11867_new_n853
* NET 2773 = spare_buffer_13.q
* NET 2776 = abc_11867_new_n776
* NET 2782 = abc_11867_new_n646
* NET 2788 = abc_11867_new_n738
* NET 2791 = abc_11867_new_n661
* NET 2792 = abc_11867_new_n666
* NET 2796 = abc_11867_new_n519
* NET 2799 = abc_11867_new_n527
* NET 2801 = abc_11867_new_n522
* NET 2956 = abc_11867_auto_rtlil_cc_2608_muxgate_11844
* NET 2957 = mos6502_alu_bi7
* NET 2962 = abc_11867_new_n1700
* NET 2964 = abc_11867_new_n1719
* NET 2965 = abc_11867_new_n1693
* NET 2967 = abc_11867_new_n1741
* NET 2968 = abc_11867_new_n1905
* NET 2971 = abc_11867_new_n1743
* NET 2973 = abc_11867_new_n1762
* NET 2974 = abc_11867_new_n1729
* NET 2982 = abc_11867_new_n1737
* NET 2984 = abc_11867_new_n1695
* NET 2985 = abc_11867_new_n1694
* NET 2986 = abc_11867_new_n1691
* NET 2989 = abc_11867_new_n1747
* NET 2996 = abc_11867_new_n1829
* NET 2997 = abc_11867_new_n1791
* NET 2998 = abc_11867_new_n1911
* NET 3000 = abc_11867_new_n1862
* NET 3003 = abc_11867_new_n885
* NET 3004 = abc_11867_new_n1816
* NET 3007 = abc_11867_new_n1817
* NET 3008 = abc_11867_new_n880
* NET 3009 = abc_11867_new_n884
* NET 3011 = abc_11867_new_n955
* NET 3012 = a[0]
* NET 3014 = subckt_1716_sff1_x4.sff_s
* NET 3015 = subckt_1716_sff1_x4.y
* NET 3018 = subckt_1716_sff1_x4.sff_m
* NET 3019 = abc_11867_auto_rtlil_cc_2608_muxgate_11780
* NET 3020 = subckt_1716_sff1_x4.u
* NET 3021 = subckt_1716_sff1_x4.ckr
* NET 3022 = subckt_1716_sff1_x4.nckr
* NET 3028 = abc_11867_new_n1039
* NET 3029 = abc_11867_new_n950
* NET 3032 = abc_11867_new_n952
* NET 3033 = abc_11867_new_n615
* NET 3035 = abc_11867_new_n1661
* NET 3036 = abc_11867_new_n1663
* NET 3037 = abc_11867_new_n1662
* NET 3040 = abc_11867_new_n579
* NET 3044 = abc_11867_new_n1689
* NET 3046 = abc_11867_new_n1439
* NET 3047 = abc_11867_new_n1438
* NET 3050 = abc_11867_new_n852
* NET 3057 = abc_11867_new_n614
* NET 3062 = abc_11867_new_n571
* NET 3063 = abc_11867_new_n566
* NET 3064 = abc_11867_new_n620
* NET 3065 = abc_11867_new_n616
* NET 3066 = abc_11867_new_n612
* NET 3068 = abc_11867_new_n810
* NET 3069 = abc_11867_new_n834
* NET 3070 = abc_11867_new_n572
* NET 3071 = abc_11867_new_n622
* NET 3072 = abc_11867_new_n817
* NET 3076 = abc_11867_new_n621
* NET 3077 = abc_11867_new_n607
* NET 3079 = abc_11867_new_n642
* NET 3081 = abc_11867_new_n650
* NET 3082 = abc_11867_new_n735
* NET 3084 = abc_11867_new_n736
* NET 3086 = abc_11867_new_n518
* NET 3088 = abc_11867_new_n516
* NET 3092 = mos6502_state[2]
* NET 3094 = subckt_1627_sff1_x4.sff_s
* NET 3095 = subckt_1627_sff1_x4.y
* NET 3096 = subckt_1627_sff1_x4.sff_m
* NET 3099 = subckt_1627_sff1_x4.ckr
* NET 3100 = subckt_1627_sff1_x4.u
* NET 3101 = subckt_1627_sff1_x4.nckr
* NET 3151 = abc_11867_new_n523
* NET 3152 = abc_11867_new_n1026
* NET 3155 = abc_11867_new_n1722
* NET 3158 = abc_11867_auto_rtlil_cc_2608_muxgate_11846
* NET 3160 = subckt_1757_sff1_x4.sff_s
* NET 3164 = subckt_1757_sff1_x4.y
* NET 3166 = subckt_1757_sff1_x4.sff_m
* NET 3167 = subckt_1757_sff1_x4.u
* NET 3168 = subckt_1757_sff1_x4.ckr
* NET 3169 = subckt_1757_sff1_x4.nckr
* NET 3175 = abc_11867_new_n1756
* NET 3179 = abc_11867_new_n1761
* NET 3183 = abc_11867_new_n1757
* NET 3188 = abc_11867_new_n1765
* NET 3193 = abc_11867_new_n1759
* NET 3198 = abc_11867_new_n1796
* NET 3202 = abc_11867_new_n1830
* NET 3213 = abc_11867_new_n1792
* NET 3219 = abc_11867_new_n1831
* NET 3230 = abc_11867_new_n1832
* NET 3236 = abc_11867_new_n1649
* NET 3242 = abc_11867_new_n1822
* NET 3246 = abc_11867_new_n1855
* NET 3263 = a[8]
* NET 3266 = subckt_1724_sff1_x4.y
* NET 3267 = subckt_1724_sff1_x4.sff_s
* NET 3270 = subckt_1724_sff1_x4.sff_m
* NET 3272 = abc_11867_auto_rtlil_cc_2608_muxgate_11796
* NET 3273 = subckt_1724_sff1_x4.ckr
* NET 3274 = subckt_1724_sff1_x4.u
* NET 3275 = subckt_1724_sff1_x4.nckr
* NET 3277 = abc_11867_new_n1104
* NET 3285 = abc_11867_new_n961
* NET 3288 = abc_11867_new_n1046
* NET 3292 = abc_11867_new_n1041
* NET 3295 = abc_11867_new_n1044
* NET 3306 = abc_11867_new_n956
* NET 3311 = abc_11867_new_n960
* NET 3322 = abc_11867_new_n957
* NET 3331 = abc_11867_new_n1431
* NET 3337 = abc_11867_new_n1433
* NET 3338 = abc_11867_new_n1432
* NET 3349 = abc_11867_new_n724
* NET 3355 = abc_11867_new_n649
* NET 3370 = abc_11867_new_n556
* NET 3375 = abc_11867_new_n835
* NET 3377 = abc_11867_new_n833
* NET 3379 = abc_11867_new_n505
* NET 3382 = abc_11867_new_n824
* NET 3391 = abc_11867_new_n800
* NET 3396 = abc_11867_new_n526
* NET 3402 = abc_11867_new_n651
* NET 3403 = abc_11867_new_n667
* NET 3410 = abc_11867_new_n485
* NET 3413 = mos6502_state[4]
* NET 3416 = subckt_1629_sff1_x4.y
* NET 3417 = subckt_1629_sff1_x4.sff_s
* NET 3420 = subckt_1629_sff1_x4.sff_m
* NET 3422 = subckt_1629_sff1_x4.ckr
* NET 3423 = subckt_1629_sff1_x4.u
* NET 3424 = subckt_1629_sff1_x4.nckr
* NET 3425 = do[0]
* NET 3606 = abc_11867_new_n1763
* NET 3607 = abc_11867_new_n1767
* NET 3610 = abc_11867_new_n1768
* NET 3611 = abc_11867_new_n1904
* NET 3612 = abc_11867_new_n1902
* NET 3615 = abc_11867_new_n1716
* NET 3617 = abc_11867_new_n1766
* NET 3618 = abc_11867_new_n1734
* NET 3621 = abc_11867_new_n1735
* NET 3625 = abc_11867_new_n1736
* NET 3626 = abc_11867_new_n1758
* NET 3628 = abc_11867_new_n1744
* NET 3630 = abc_11867_new_n1754
* NET 3632 = abc_11867_new_n1683
* NET 3635 = abc_11867_new_n1750
* NET 3637 = abc_11867_new_n1783
* NET 3646 = abc_11867_new_n1834
* NET 3647 = abc_11867_new_n1833
* NET 3651 = abc_11867_new_n1835
* NET 3652 = abc_11867_new_n1837
* NET 3654 = abc_11867_new_n1821
* NET 3658 = abc_11867_new_n1854
* NET 3664 = abc_11867_new_n1846
* NET 3668 = abc_11867_new_n1876
* NET 3675 = abc_11867_new_n1925
* NET 3677 = abc_11867_new_n1926
* NET 3679 = subckt_1750_sff1_x4.sff_s
* NET 3680 = subckt_1750_sff1_x4.y
* NET 3683 = subckt_1750_sff1_x4.sff_m
* NET 3684 = abc_11867_auto_rtlil_cc_2608_muxgate_11848
* NET 3685 = subckt_1750_sff1_x4.u
* NET 3686 = subckt_1750_sff1_x4.ckr
* NET 3687 = subckt_1750_sff1_x4.nckr
* NET 3688 = abc_11867_new_n1666
* NET 3693 = abc_11867_new_n972
* NET 3694 = abc_11867_new_n1042
* NET 3695 = abc_11867_new_n1659
* NET 3698 = abc_11867_new_n491
* NET 3703 = abc_11867_new_n382
* NET 3704 = abc_11867_new_n483
* NET 3706 = abc_11867_new_n381
* NET 3709 = abc_11867_new_n493
* NET 3710 = abc_11867_new_n767
* NET 3712 = abc_11867_new_n769
* NET 3714 = abc_11867_new_n515
* NET 3716 = abc_11867_new_n591
* NET 3718 = abc_11867_new_n590
* NET 3719 = abc_11867_new_n550
* NET 3721 = abc_11867_new_n836
* NET 3722 = abc_11867_new_n655
* NET 3723 = abc_11867_new_n506
* NET 3726 = abc_11867_new_n555
* NET 3728 = abc_11867_new_n573
* NET 3734 = abc_11867_new_n508
* NET 3735 = abc_11867_new_n653
* NET 3738 = abc_11867_new_n551
* NET 3739 = abc_11867_new_n549
* NET 3744 = subckt_1625_sff1_x4.sff_s
* NET 3745 = subckt_1625_sff1_x4.y
* NET 3748 = subckt_1625_sff1_x4.sff_m
* NET 3749 = subckt_1625_sff1_x4.u
* NET 3750 = subckt_1625_sff1_x4.ckr
* NET 3751 = subckt_1625_sff1_x4.nckr
* NET 3804 = abc_11867_new_n374
* NET 3814 = abc_11867_new_n1903
* NET 3817 = abc_11867_new_n1692
* NET 3822 = abc_11867_new_n1713
* NET 3830 = abc_11867_new_n1742
* NET 3832 = abc_11867_new_n1028
* NET 3833 = abc_11867_new_n1027
* NET 3837 = abc_11867_new_n1732
* NET 3844 = abc_11867_new_n1751
* NET 3849 = abc_11867_new_n1784
* NET 3860 = abc_11867_new_n1685
* NET 3871 = abc_11867_new_n1782
* NET 3872 = abc_11867_new_n1841
* NET 3875 = abc_11867_new_n1889
* NET 3879 = abc_11867_new_n1825
* NET 3884 = abc_11867_new_n1828
* NET 3889 = abc_11867_new_n1827
* NET 3890 = abc_11867_new_n1856
* NET 3893 = abc_11867_new_n1853
* NET 3905 = abc_11867_new_n1875
* NET 3917 = abc_11867_new_n1877
* NET 3922 = abc_11867_new_n1881
* NET 3925 = abc_11867_new_n1883
* NET 3928 = abc_11867_new_n1874
* NET 3938 = abc_11867_new_n1878
* NET 3941 = abc_11867_new_n1880
* NET 3945 = abc_11867_new_n1884
* NET 3952 = abc_11867_new_n1924
* NET 3956 = abc_11867_new_n1045
* NET 3958 = abc_11867_new_n1660
* NET 3959 = abc_11867_new_n1664
* NET 3961 = abc_11867_new_n967
* NET 3962 = abc_11867_new_n962
* NET 3967 = abc_11867_new_n499
* NET 3969 = abc_11867_new_n486
* NET 3974 = abc_11867_new_n575
* NET 3976 = abc_11867_new_n487
* NET 3982 = abc_11867_new_n770