* Spice description of arlet6502_cts_r_transistors_ihp
* Spice driver version 66370477
* Date ( dd/mm/yyyy hh:mm:ss ): 30/09/2024 at 15:11:36

* INTERF a[0] a[1] a[2] a[3] a[4] a[5] a[6] a[7] a[8] a[9] a[10] a[11] a[12] 
* INTERF a[13] a[14] a[15] clk di[0] di[1] di[2] di[3] di[4] di[5] di[6] 
* INTERF di[7] do[0] do[1] do[2] do[3] do[4] do[5] do[6] do[7] irq nmi rdy 
* INTERF reset vdd vss we 


.subckt arlet6502_cts_r_transistors_ihp 3441 2148 2281 5601 3866 5146 4490 4083 3281 8768 8741 8716 8688 8665 8646 8617 4311 8585 8566 7928 7071 6701 6410 6234 4305 2939 1876 1118 943 7826 6975 6138 5341 4751 2187 4158 3158 8552 8787 1215 
* NET 55 = subckt_1650_sff1_x4.sff_s
* NET 59 = subckt_1650_sff1_x4.sff_m
* NET 61 = subckt_1650_sff1_x4.ckr
* NET 63 = subckt_1650_sff1_x4.nckr
* NET 67 = subckt_1620_sff1_x4.sff_s
* NET 71 = subckt_1620_sff1_x4.sff_m
* NET 73 = subckt_1620_sff1_x4.ckr
* NET 74 = subckt_1620_sff1_x4.nckr
* NET 75 = abc_11867_auto_rtlil_cc_2608_muxgate_11610
* NET 82 = subckt_1634_sff1_x4.sff_s
* NET 86 = subckt_1634_sff1_x4.sff_m
* NET 89 = subckt_1634_sff1_x4.ckr
* NET 90 = subckt_1634_sff1_x4.nckr
* NET 94 = subckt_1622_sff1_x4.sff_s
* NET 97 = subckt_1622_sff1_x4.sff_m
* NET 99 = subckt_1622_sff1_x4.ckr
* NET 101 = subckt_1622_sff1_x4.nckr
* NET 103 = subckt_1649_sff1_x4.sff_s
* NET 106 = subckt_1649_sff1_x4.sff_m
* NET 111 = subckt_1649_sff1_x4.ckr
* NET 112 = subckt_1649_sff1_x4.nckr
* NET 115 = subckt_1619_sff1_x4.sff_s
* NET 119 = subckt_1619_sff1_x4.sff_m
* NET 121 = subckt_1619_sff1_x4.ckr
* NET 123 = subckt_1619_sff1_x4.nckr
* NET 125 = subckt_1633_sff1_x4.sff_s
* NET 128 = subckt_1633_sff1_x4.sff_m
* NET 133 = subckt_1633_sff1_x4.ckr
* NET 134 = subckt_1633_sff1_x4.nckr
* NET 137 = subckt_1618_sff1_x4.sff_s
* NET 142 = subckt_1618_sff1_x4.sff_m
* NET 143 = subckt_1618_sff1_x4.ckr
* NET 145 = subckt_1618_sff1_x4.nckr
* NET 148 = subckt_1621_sff1_x4.sff_s
* NET 152 = subckt_1621_sff1_x4.sff_m
* NET 154 = subckt_1621_sff1_x4.ckr
* NET 156 = subckt_1621_sff1_x4.nckr
* NET 168 = abc_11867_new_n485
* NET 175 = abc_11867_new_n872
* NET 177 = abc_11867_new_n873
* NET 179 = abc_11867_new_n875
* NET 181 = abc_11867_new_n868
* NET 185 = abc_11867_new_n428
* NET 190 = abc_11867_new_n473
* NET 193 = abc_11867_new_n430_hfns_2
* NET 195 = abc_11867_new_n430
* NET 198 = abc_11867_new_n431
* NET 248 = subckt_1653_sff1_x4.sff_s
* NET 253 = subckt_1653_sff1_x4.sff_m
* NET 256 = subckt_1653_sff1_x4.ckr
* NET 257 = subckt_1653_sff1_x4.nckr
* NET 259 = abc_11867_auto_rtlil_cc_2608_muxgate_11658
* NET 264 = subckt_1623_sff1_x4.sff_s
* NET 269 = subckt_1623_sff1_x4.sff_m
* NET 271 = subckt_1623_sff1_x4.ckr
* NET 273 = subckt_1623_sff1_x4.nckr
* NET 274 = mos6502_axys_2_3
* NET 276 = mos6502_axys_3_3
* NET 281 = subckt_1652_sff1_x4.sff_s
* NET 285 = subckt_1652_sff1_x4.sff_m
* NET 288 = subckt_1652_sff1_x4.ckr
* NET 290 = subckt_1652_sff1_x4.nckr
* NET 291 = abc_11867_auto_rtlil_cc_2608_muxgate_11662
* NET 297 = subckt_1636_sff1_x4.sff_s
* NET 301 = subckt_1636_sff1_x4.sff_m
* NET 304 = subckt_1636_sff1_x4.ckr
* NET 306 = subckt_1636_sff1_x4.nckr
* NET 307 = abc_11867_auto_rtlil_cc_2608_muxgate_11656
* NET 313 = abc_11867_auto_rtlil_cc_2608_muxgate_11608
* NET 318 = subckt_1648_sff1_x4.sff_s
* NET 322 = subckt_1648_sff1_x4.sff_m
* NET 326 = subckt_1648_sff1_x4.nckr
* NET 327 = subckt_1648_sff1_x4.ckr
* NET 328 = abc_11867_auto_rtlil_cc_2608_muxgate_11654
* NET 333 = abc_11867_auto_rtlil_cc_2608_muxgate_11606
* NET 338 = abc_11867_auto_rtlil_cc_2608_muxgate_11612
* NET 349 = subckt_1632_sff1_x4.sff_s
* NET 354 = subckt_1632_sff1_x4.sff_m
* NET 356 = abc_11867_auto_rtlil_cc_2608_muxgate_11622
* NET 358 = subckt_1632_sff1_x4.ckr
* NET 359 = subckt_1632_sff1_x4.nckr
* NET 360 = abc_11867_new_n1410
* NET 363 = abc_11867_new_n1411
* NET 369 = abc_11867_new_n640
* NET 372 = abc_11867_new_n476
* NET 374 = abc_11867_new_n864
* NET 378 = abc_11867_new_n877
* NET 382 = abc_11867_new_n871
* NET 388 = abc_11867_new_n878
* NET 391 = abc_11867_new_n862
* NET 396 = abc_11867_new_n471
* NET 398 = abc_11867_new_n471_hfns_3
* NET 415 = abc_11867_new_n608
* NET 416 = abc_11867_new_n431_hfns_2
* NET 418 = abc_11867_new_n482
* NET 492 = abc_11867_new_n1424
* NET 498 = abc_11867_new_n521
* NET 499 = abc_11867_new_n522
* NET 502 = abc_11867_auto_rtlil_cc_2608_muxgate_11664
* NET 510 = subckt_1624_sff1_x4.sff_s
* NET 512 = subckt_1624_sff1_x4.sff_m
* NET 515 = subckt_1624_sff1_x4.ckr
* NET 516 = subckt_1624_sff1_x4.nckr
* NET 517 = abc_11867_auto_rtlil_cc_2608_muxgate_11616
* NET 524 = subckt_1637_sff1_x4.sff_s
* NET 528 = subckt_1637_sff1_x4.sff_m
* NET 530 = subckt_1637_sff1_x4.ckr
* NET 531 = subckt_1637_sff1_x4.nckr
* NET 532 = mos6502_axys_0_3
* NET 534 = abc_11867_auto_rtlil_cc_2608_muxgate_11626
* NET 538 = mos6502_axys_2_5
* NET 542 = mos6502_axys_3_5
* NET 543 = abc_11867_auto_rtlil_cc_2608_muxgate_11614
* NET 548 = mos6502_axys_0_5
* NET 550 = abc_11867_auto_rtlil_cc_2608_muxgate_11630
* NET 554 = mos6502_axys_3_2
* NET 555 = mos6502_axys_2_2
* NET 559 = abc_11867_auto_rtlil_cc_2608_muxgate_11624
* NET 560 = mos6502_axys_0_2
* NET 571 = subckt_1617_sff1_x4.sff_s
* NET 575 = subckt_1617_sff1_x4.sff_m
* NET 576 = subckt_1617_sff1_x4.ckr
* NET 578 = subckt_1617_sff1_x4.nckr
* NET 581 = subckt_1651_sff1_x4.sff_s
* NET 584 = subckt_1651_sff1_x4.sff_m
* NET 587 = subckt_1651_sff1_x4.ckr
* NET 588 = subckt_1651_sff1_x4.nckr
* NET 591 = subckt_1635_sff1_x4.sff_s
* NET 594 = subckt_1635_sff1_x4.sff_m
* NET 597 = subckt_1635_sff1_x4.ckr
* NET 598 = subckt_1635_sff1_x4.nckr
* NET 599 = abc_11867_new_n1421
* NET 602 = abc_11867_new_n639
* NET 608 = abc_11867_new_n1426
* NET 609 = abc_11867_new_n856
* NET 612 = abc_11867_new_n865
* NET 613 = abc_11867_new_n874
* NET 614 = abc_11867_new_n867
* NET 616 = abc_11867_new_n876
* NET 621 = abc_11867_new_n473_hfns_3
* NET 625 = abc_11867_new_n525
* NET 628 = abc_11867_new_n608_hfns_2
* NET 632 = abc_11867_new_n478
* NET 638 = abc_11867_new_n426
* NET 680 = abc_11867_auto_rtlil_cc_2608_muxgate_11620
* NET 684 = abc_11867_new_n1425
* NET 699 = subckt_1654_sff1_x4.sff_s
* NET 700 = subckt_1654_sff1_x4.sff_m
* NET 706 = subckt_1654_sff1_x4.nckr
* NET 707 = subckt_1654_sff1_x4.ckr
* NET 708 = abc_11867_auto_rtlil_cc_2608_muxgate_11666
* NET 715 = abc_11867_auto_rtlil_cc_2608_muxgate_11618
* NET 720 = mos6502_axys_3_6
* NET 721 = mos6502_axys_2_6
* NET 726 = mos6502_axys_0_6
* NET 728 = abc_11867_auto_rtlil_cc_2608_muxgate_11632
* NET 736 = subckt_1644_sff1_x4.sff_s
* NET 737 = subckt_1644_sff1_x4.sff_m
* NET 745 = subckt_1644_sff1_x4.nckr
* NET 746 = subckt_1644_sff1_x4.ckr
* NET 751 = subckt_1631_sff1_x4.sff_s
* NET 752 = subckt_1631_sff1_x4.sff_m
* NET 759 = subckt_1631_sff1_x4.ckr
* NET 761 = subckt_1631_sff1_x4.nckr
* NET 764 = mos6502_axys_3_1
* NET 765 = mos6502_axys_2_1
* NET 767 = mos6502_axys_0_1
* NET 777 = abc_11867_auto_rtlil_cc_2608_muxgate_11628
* NET 779 = abc_11867_new_n1148
* NET 783 = abc_11867_new_n1427
* NET 786 = abc_11867_new_n1418
* NET 792 = abc_11867_new_n1409
* NET 793 = abc_11867_new_n1414
* NET 794 = abc_11867_new_n1412
* NET 795 = abc_11867_new_n1413
* NET 800 = abc_11867_new_n654
* NET 802 = abc_11867_new_n1407
* NET 805 = abc_11867_new_n863
* NET 807 = abc_11867_new_n860
* NET 815 = abc_11867_new_n475
* NET 817 = abc_11867_new_n490
* NET 824 = abc_11867_new_n518
* NET 827 = abc_11867_new_n516
* NET 831 = abc_11867_new_n478_hfns_3
* NET 835 = abc_11867_new_n514_hfns_2
* NET 836 = abc_11867_new_n514
* NET 911 = subckt_1642_sff1_x4.sff_s
* NET 914 = subckt_1642_sff1_x4.sff_m
* NET 918 = subckt_1642_sff1_x4.ckr
* NET 919 = subckt_1642_sff1_x4.nckr
* NET 920 = abc_11867_auto_rtlil_cc_2608_muxgate_11642
* NET 925 = mos6502_axys_3_7
* NET 926 = mos6502_axys_2_7
* NET 931 = mos6502_axys_0_7
* NET 933 = subckt_1638_sff1_x4.sff_s
* NET 935 = subckt_1638_sff1_x4.sff_m
* NET 937 = abc_11867_auto_rtlil_cc_2608_muxgate_11634
* NET 940 = subckt_1638_sff1_x4.nckr
* NET 941 = subckt_1638_sff1_x4.ckr
* NET 943 = do[3]
* NET 944 = abc_11867_auto_rtlil_cc_2608_muxgate_11646
* NET 951 = subckt_1641_sff1_x4.sff_s
* NET 955 = subckt_1641_sff1_x4.sff_m
* NET 956 = subckt_1641_sff1_x4.ckr
* NET 958 = subckt_1641_sff1_x4.nckr
* NET 959 = mos6502_axys_1_2
* NET 960 = abc_11867_auto_rtlil_cc_2608_muxgate_11640
* NET 967 = subckt_1647_sff1_x4.sff_s
* NET 971 = subckt_1647_sff1_x4.sff_m
* NET 972 = subckt_1647_sff1_x4.ckr
* NET 974 = subckt_1647_sff1_x4.nckr
* NET 975 = abc_11867_auto_rtlil_cc_2608_muxgate_11652
* NET 980 = abc_11867_auto_rtlil_cc_2608_muxgate_11604
* NET 983 = abc_11867_new_n1103
* NET 986 = abc_11867_auto_rtlil_cc_2608_muxgate_11660
* NET 988 = abc_11867_new_n1166
* NET 992 = mos6502_axys_3_4
* NET 993 = mos6502_axys_2_4
* NET 994 = mos6502_axys_0_4
* NET 1001 = subckt_1643_sff1_x4.sff_s
* NET 1004 = subckt_1643_sff1_x4.sff_m
* NET 1005 = subckt_1643_sff1_x4.ckr
* NET 1007 = subckt_1643_sff1_x4.nckr
* NET 1009 = abc_11867_new_n383
* NET 1011 = abc_11867_new_n479
* NET 1013 = abc_11867_new_n1417
* NET 1015 = abc_11867_new_n429
* NET 1016 = abc_11867_new_n500
* NET 1019 = abc_11867_new_n1423
* NET 1020 = abc_11867_new_n859
* NET 1021 = abc_11867_new_n858
* NET 1030 = abc_11867_new_n641
* NET 1034 = abc_11867_new_n638
* NET 1037 = abc_11867_new_n527
* NET 1044 = abc_11867_new_n426_hfns_2
* NET 1046 = abc_11867_new_n482_hfns_2
* NET 1076 = subckt_1645_sff1_x4.sff_s
* NET 1080 = subckt_1645_sff1_x4.sff_m
* NET 1084 = subckt_1645_sff1_x4.ckr
* NET 1085 = subckt_1645_sff1_x4.nckr
* NET 1092 = mos6502_axys_1_3
* NET 1095 = spare_buffer_82.q
* NET 1100 = abc_11867_new_n909
* NET 1105 = mos6502_axys_1_5
* NET 1113 = abc_11867_new_n901
* NET 1114 = abc_11867_new_n900
* NET 1116 = abc_11867_new_n902
* NET 1118 = do[2]
* NET 1119 = abc_11867_new_n991
* NET 1121 = spare_buffer_78.q
* NET 1123 = abc_11867_new_n881
* NET 1124 = mos6502_axys_3_0
* NET 1125 = mos6502_axys_2_0
* NET 1127 = mos6502_axys_0_0
* NET 1128 = abc_11867_new_n882
* NET 1129 = abc_11867_new_n883
* NET 1135 = abc_11867_new_n916
* NET 1138 = abc_11867_new_n915
* NET 1140 = mos6502_axys_1_4
* NET 1141 = abc_11867_auto_rtlil_cc_2608_muxgate_11644
* NET 1147 = abc_11867_new_n1415
* NET 1149 = abc_11867_new_n1420
* NET 1151 = abc_11867_new_n1419
* NET 1154 = abc_11867_new_n600
* NET 1159 = abc_11867_new_n1467
* NET 1166 = spare_buffer_66.q
* NET 1173 = abc_11867_new_n475_hfns_3
* NET 1180 = abc_11867_new_n490_hfns_2
* NET 1189 = abc_11867_new_n606
* NET 1193 = abc_11867_new_n605
* NET 1199 = spare_buffer_62.q
* NET 1201 = abc_11867_new_n665
* NET 1202 = abc_11867_new_n664
* NET 1203 = mos6502_state[2]
* NET 1204 = subckt_1627_sff1_x4.sff_s
* NET 1210 = subckt_1627_sff1_x4.sff_m
* NET 1212 = subckt_1627_sff1_x4.ckr
* NET 1214 = subckt_1627_sff1_x4.nckr
* NET 1215 = we
* NET 1280 = mos6502_axys_1_7
* NET 1281 = subckt_1646_sff1_x4.sff_s
* NET 1286 = abc_11867_auto_rtlil_cc_2608_muxgate_11650
* NET 1288 = subckt_1646_sff1_x4.sff_m
* NET 1290 = subckt_1646_sff1_x4.ckr
* NET 1291 = subckt_1646_sff1_x4.nckr
* NET 1292 = abc_11867_auto_rtlil_cc_2608_muxgate_11648
* NET 1297 = mos6502_axys_1_6
* NET 1300 = spare_buffer_81.q
* NET 1302 = clk_root_tr_tr_0
* NET 1308 = abc_11867_new_n1792
* NET 1309 = abc_11867_new_n1796
* NET 1310 = abc_11867_new_n1830
* NET 1318 = abc_11867_new_n1829
* NET 1323 = abc_11867_new_n1817
* NET 1325 = abc_11867_new_n1821
* NET 1333 = abc_11867_new_n1854
* NET 1335 = spare_buffer_77.q
* NET 1338 = abc_11867_new_n917
* NET 1339 = abc_11867_new_n914
* NET 1347 = subckt_1640_sff1_x4.sff_s
* NET 1350 = subckt_1640_sff1_x4.sff_m
* NET 1355 = subckt_1640_sff1_x4.ckr
* NET 1356 = subckt_1640_sff1_x4.nckr
* NET 1358 = abc_11867_new_n1465
* NET 1362 = abc_11867_new_n1468
* NET 1363 = abc_11867_new_n663
* NET 1364 = abc_11867_new_n1466
* NET 1365 = spare_buffer_65.q
* NET 1367 = clk_root_tl_tr_0
* NET 1369 = abc_11867_new_n380
* NET 1372 = abc_11867_new_n599
* NET 1373 = abc_11867_new_n602
* NET 1381 = abc_11867_new_n659
* NET 1382 = abc_11867_new_n660
* NET 1386 = spare_buffer_61.q
* NET 1390 = mos6502_state[0]
* NET 1391 = subckt_1625_sff1_x4.sff_s
* NET 1394 = subckt_1625_sff1_x4.sff_m
* NET 1399 = subckt_1625_sff1_x4.ckr
* NET 1400 = subckt_1625_sff1_x4.nckr
* NET 1447 = abc_11867_new_n1807
* NET 1455 = abc_11867_new_n1806
* NET 1456 = abc_11867_new_n1804
* NET 1462 = abc_11867_new_n907
* NET 1463 = abc_11867_new_n908
* NET 1476 = abc_11867_new_n1816
* NET 1477 = abc_11867_new_n1831
* NET 1479 = abc_11867_new_n1855
* NET 1487 = abc_11867_new_n1851
* NET 1489 = abc_11867_new_n1853
* NET 1496 = abc_11867_new_n1684
* NET 1498 = abc_11867_new_n1874
* NET 1505 = mos6502_axys_1_0
* NET 1506 = subckt_1639_sff1_x4.sff_s
* NET 1509 = subckt_1639_sff1_x4.sff_m
* NET 1513 = abc_11867_auto_rtlil_cc_2608_muxgate_11636
* NET 1516 = clk_root_tr_tl_0
* NET 1517 = subckt_1639_sff1_x4.ckr
* NET 1518 = subckt_1639_sff1_x4.nckr
* NET 1521 = abc_11867_auto_rtlil_cc_2608_muxgate_11638
* NET 1522 = mos6502_axys_1_1
* NET 1525 = abc_11867_new_n1157
* NET 1535 = abc_11867_new_n1434
* NET 1537 = abc_11867_new_n1668
* NET 1538 = abc_11867_new_n1422
* NET 1539 = abc_11867_new_n1408
* NET 1546 = abc_11867_new_n766
* NET 1552 = abc_11867_new_n604
* NET 1553 = abc_11867_new_n656
* NET 1558 = abc_11867_new_n857
* NET 1564 = abc_11867_new_n690
* NET 1566 = abc_11867_new_n689
* NET 1567 = mos6502_state[5]
* NET 1568 = subckt_1630_sff1_x4.sff_s
* NET 1574 = subckt_1630_sff1_x4.sff_m
* NET 1576 = subckt_1630_sff1_x4.ckr
* NET 1578 = subckt_1630_sff1_x4.nckr
* NET 1586 = abc_11867_new_n738
* NET 1590 = abc_11867_new_n657
* NET 1591 = abc_11867_new_n735
* NET 1592 = abc_11867_new_n736
* NET 1596 = abc_11867_new_n729
* NET 1599 = abc_11867_new_n666
* NET 1602 = abc_11867_new_n726
* NET 1641 = abc_11867_new_n658
* NET 1702 = abc_11867_new_n1811
* NET 1706 = abc_11867_new_n1809
* NET 1709 = abc_11867_new_n1801
* NET 1710 = abc_11867_new_n1808
* NET 1712 = abc_11867_new_n1805
* NET 1716 = abc_11867_new_n1797
* NET 1717 = abc_11867_new_n1803
* NET 1722 = abc_11867_new_n1802
* NET 1723 = abc_11867_new_n1836
* NET 1725 = abc_11867_new_n1840
* NET 1729 = abc_11867_new_n1839
* NET 1732 = abc_11867_new_n1827
* NET 1737 = abc_11867_new_n1856
* NET 1738 = abc_11867_new_n1860
* NET 1741 = abc_11867_new_n1849
* NET 1744 = abc_11867_new_n1852
* NET 1747 = abc_11867_new_n1876
* NET 1753 = abc_11867_new_n895
* NET 1755 = abc_11867_new_n1846
* NET 1757 = abc_11867_new_n893
* NET 1758 = abc_11867_new_n894
* NET 1760 = abc_11867_new_n485_hfns_4
* NET 1763 = abc_11867_new_n951
* NET 1765 = abc_11867_new_n966
* NET 1766 = abc_11867_new_n965
* NET 1768 = abc_11867_new_n768
* NET 1769 = abc_11867_new_n855
* NET 1771 = abc_11867_new_n1667
* NET 1772 = abc_11867_new_n598
* NET 1777 = abc_11867_new_n775
* NET 1781 = abc_11867_new_n567
* NET 1783 = abc_11867_new_n603
* NET 1790 = abc_11867_new_n645
* NET 1791 = abc_11867_new_n644
* NET 1793 = abc_11867_new_n661
* NET 1794 = abc_11867_new_n825
* NET 1795 = abc_11867_new_n823
* NET 1798 = abc_11867_new_n652
* NET 1805 = subckt_1628_sff1_x4.sff_s
* NET 1809 = subckt_1628_sff1_x4.sff_m
* NET 1811 = subckt_1628_sff1_x4.nckr
* NET 1812 = subckt_1628_sff1_x4.ckr
* NET 1862 = abc_11867_new_n1826
* NET 1870 = abc_11867_new_n578
* NET 1876 = do[1]
* NET 1879 = abc_11867_new_n1815
* NET 1882 = abc_11867_new_n1813
* NET 1883 = abc_11867_new_n1812
* NET 1886 = abc_11867_new_n1810
* NET 1890 = abc_11867_new_n1800
* NET 1897 = abc_11867_new_n1890
* NET 1898 = abc_11867_new_n1889
* NET 1901 = abc_11867_new_n1841
* NET 1902 = abc_11867_new_n1838
* NET 1907 = abc_11867_new_n1825
* NET 1910 = abc_11867_new_n1861
* NET 1911 = abc_11867_new_n1888
* NET 1914 = abc_11867_new_n1833
* NET 1915 = abc_11867_new_n1822
* NET 1916 = abc_11867_new_n1828
* NET 1917 = abc_11867_new_n1832
* NET 1922 = abc_11867_new_n1773
* NET 1923 = abc_11867_new_n1857
* NET 1924 = abc_11867_new_n1886
* NET 1926 = abc_11867_new_n1858
* NET 1928 = abc_11867_new_n1850
* NET 1931 = abc_11867_new_n1859
* NET 1937 = abc_11867_new_n1875
* NET 1945 = abc_11867_new_n1872
* NET 1946 = abc_11867_new_n1873
* NET 1951 = abc_11867_new_n1842
* NET 1952 = abc_11867_new_n1845
* NET 1954 = abc_11867_new_n983
* NET 1956 = abc_11867_new_n1681
* NET 1959 = abc_11867_new_n1678
* NET 1966 = abc_11867_new_n1662
* NET 1967 = abc_11867_new_n1661
* NET 1972 = abc_11867_new_n1436
* NET 1973 = abc_11867_new_n1441
* NET 1975 = abc_11867_new_n1435
* NET 1976 = abc_11867_new_n1437
* NET 1977 = abc_11867_new_n484
* NET 1978 = abc_11867_new_n509
* NET 1980 = abc_11867_new_n517
* NET 1988 = abc_11867_new_n613
* NET 1992 = abc_11867_new_n691
* NET 1995 = abc_11867_new_n642
* NET 1996 = abc_11867_new_n649
* NET 1997 = abc_11867_new_n519
* NET 1998 = abc_11867_new_n831
* NET 1999 = abc_11867_new_n830
* NET 2000 = abc_11867_new_n829
* NET 2008 = abc_11867_new_n580
* NET 2015 = abc_11867_new_n763
* NET 2016 = abc_11867_new_n662
* NET 2017 = abc_11867_new_n562
* NET 2020 = subckt_1656_sff1_x4.sff_s
* NET 2021 = subckt_1656_sff1_x4.sff_m
* NET 2026 = subckt_1656_sff1_x4.ckr
* NET 2028 = clk_root_tl_tl_0
* NET 2029 = subckt_1656_sff1_x4.nckr
* NET 2101 = abc_11867_new_n1769
* NET 2103 = abc_11867_new_n1814
* NET 2105 = abc_11867_new_n1891
* NET 2107 = abc_11867_new_n1893
* NET 2108 = abc_11867_new_n1898
* NET 2117 = abc_11867_new_n1887
* NET 2119 = abc_11867_new_n1835
* NET 2120 = abc_11867_new_n1837
* NET 2121 = abc_11867_new_n1791
* NET 2122 = abc_11867_new_n1834
* NET 2127 = abc_11867_new_n1798
* NET 2128 = abc_11867_new_n1885
* NET 2129 = abc_11867_new_n1881
* NET 2133 = abc_11867_new_n1878
* NET 2137 = abc_11867_new_n1863
* NET 2138 = abc_11867_new_n1867
* NET 2139 = abc_11867_new_n1869
* NET 2145 = abc_11867_new_n356
* NET 2148 = a[1]
* NET 2151 = abc_11867_new_n503
* NET 2153 = abc_11867_new_n1688
* NET 2155 = abc_11867_new_n1689
* NET 2157 = abc_11867_new_n1663
* NET 2159 = abc_11867_new_n524
* NET 2160 = abc_11867_new_n625
* NET 2161 = abc_11867_new_n565
* NET 2170 = abc_11867_new_n646
* NET 2171 = abc_11867_new_n650
* NET 2172 = abc_11867_new_n832
* NET 2173 = abc_11867_new_n824
* NET 2174 = abc_11867_new_n523
* NET 2176 = abc_11867_new_n549
* NET 2178 = abc_11867_new_n724
* NET 2179 = abc_11867_new_n730
* NET 2180 = abc_11867_new_n725
* NET 2182 = abc_11867_new_n651
* NET 2183 = abc_11867_new_n667
* NET 2185 = abc_11867_new_n737
* NET 2187 = nmi
* NET 2189 = mos6502_nmi_1
* NET 2191 = flatten_mos6502_auto_fsm_map_cc_288_map_fsm_1405_y[2]
* NET 2192 = flatten_mos6502_auto_fsm_map_cc_288_map_fsm_1405_y[3]
* NET 2235 = abc_11867_new_n1728
* NET 2245 = abc_11867_new_n1760
* NET 2247 = abc_11867_new_n942
* NET 2248 = abc_11867_new_n943
* NET 2251 = abc_11867_new_n935
* NET 2252 = abc_11867_new_n936
* NET 2255 = abc_11867_new_n1799
* NET 2260 = abc_11867_new_n1669
* NET 2263 = abc_11867_new_n1871
* NET 2267 = abc_11867_new_n1879
* NET 2268 = abc_11867_new_n1877
* NET 2270 = abc_11867_new_n1870
* NET 2272 = abc_11867_new_n1880
* NET 2273 = abc_11867_new_n884
* NET 2274 = abc_11867_new_n880
* NET 2277 = abc_11867_new_n1848
* NET 2281 = a[2]
* NET 2284 = abc_11867_new_n1104
* NET 2290 = subckt_1717_sff1_x4.sff_s
* NET 2293 = abc_11867_auto_rtlil_cc_2608_muxgate_11782
* NET 2297 = subckt_1717_sff1_x4.sff_m
* NET 2299 = subckt_1717_sff1_x4.ckr
* NET 2300 = subckt_1717_sff1_x4.nckr
* NET 2301 = abc_11867_new_n1442
* NET 2302 = abc_11867_new_n1429
* NET 2305 = abc_11867_new_n615
* NET 2307 = abc_11867_new_n1687
* NET 2315 = abc_11867_new_n614
* NET 2318 = abc_11867_new_n493
* NET 2320 = abc_11867_new_n1433
* NET 2321 = abc_11867_new_n1431
* NET 2325 = abc_11867_new_n1439
* NET 2328 = abc_11867_new_n1438
* NET 2334 = abc_11867_new_n530
* NET 2337 = abc_11867_new_n583
* NET 2343 = abc_11867_new_n581
* NET 2344 = abc_11867_new_n584
* NET 2346 = abc_11867_new_n607
* NET 2350 = abc_11867_new_n526
* NET 2354 = abc_11867_new_n552
* NET 2359 = abc_11867_new_n553
* NET 2362 = subckt_1626_sff1_x4.sff_s
* NET 2364 = subckt_1626_sff1_x4.sff_m
* NET 2370 = subckt_1626_sff1_x4.ckr
* NET 2371 = subckt_1626_sff1_x4.nckr
* NET 2372 = abc_11867_new_n790
* NET 2374 = abc_11867_new_n781
* NET 2376 = abc_11867_new_n816
* NET 2471 = abc_11867_new_n1766
* NET 2476 = abc_11867_new_n1761
* NET 2481 = abc_11867_new_n1725
* NET 2482 = abc_11867_new_n1765
* NET 2498 = abc_11867_new_n1774
* NET 2499 = abc_11867_new_n1751
* NET 2500 = abc_11867_new_n1750
* NET 2501 = abc_11867_new_n1747
* NET 2504 = abc_11867_new_n927
* NET 2505 = abc_11867_new_n926
* NET 2508 = abc_11867_new_n1824
* NET 2509 = abc_11867_new_n1710
* NET 2511 = abc_11867_new_n1712
* NET 2515 = abc_11867_new_n1926
* NET 2517 = abc_11867_new_n1884
* NET 2518 = abc_11867_new_n1925
* NET 2521 = subckt_1718_sff1_x4.sff_s
* NET 2524 = subckt_1718_sff1_x4.sff_m
* NET 2527 = abc_11867_auto_rtlil_cc_2608_muxgate_11784
* NET 2530 = subckt_1718_sff1_x4.ckr
* NET 2531 = subckt_1718_sff1_x4.nckr
* NET 2532 = abc_11867_new_n841
* NET 2535 = abc_11867_new_n845
* NET 2537 = abc_11867_new_n1679
* NET 2542 = abc_11867_new_n579
* NET 2548 = abc_11867_new_n958
* NET 2550 = abc_11867_new_n960
* NET 2551 = abc_11867_new_n1430
* NET 2555 = abc_11867_new_n1440
* NET 2559 = abc_11867_new_n569
* NET 2563 = abc_11867_new_n774
* NET 2564 = abc_11867_new_n777
* NET 2566 = mos6502_state[1]
* NET 2567 = abc_11867_new_n621
* NET 2569 = abc_11867_new_n620
* NET 2570 = abc_11867_new_n616
* NET 2571 = abc_11867_new_n551
* NET 2572 = abc_11867_new_n563
* NET 2573 = abc_11867_new_n809
* NET 2576 = abc_11867_new_n810
* NET 2578 = abc_11867_new_n566
* NET 2579 = abc_11867_new_n571
* NET 2582 = abc_11867_new_n668
* NET 2584 = abc_11867_new_n528
* NET 2586 = abc_11867_new_n508
* NET 2587 = abc_11867_new_n623
* NET 2588 = abc_11867_new_n820
* NET 2589 = abc_11867_new_n529
* NET 2591 = abc_11867_new_n669
* NET 2592 = abc_11867_new_n554
* NET 2593 = flatten_mos6502_auto_fsm_map_cc_288_map_fsm_1405_y[0]
* NET 2596 = abc_11867_new_n815
* NET 2639 = abc_11867_new_n1763
* NET 2644 = abc_11867_new_n1767
* NET 2645 = abc_11867_new_n1762
* NET 2648 = abc_11867_new_n1756
* NET 2659 = abc_11867_new_n1738
* NET 2662 = abc_11867_new_n1785
* NET 2664 = abc_11867_new_n1759
* NET 2666 = abc_11867_new_n1784
* NET 2670 = abc_11867_new_n1783
* NET 2671 = abc_11867_new_n1786
* NET 2672 = abc_11867_new_n1789
* NET 2675 = abc_11867_new_n1788
* NET 2678 = abc_11867_new_n1780
* NET 2682 = abc_11867_new_n1782
* NET 2685 = abc_11867_new_n1787
* NET 2693 = subckt_1750_sff1_x4.sff_s
* NET 2699 = abc_11867_auto_rtlil_cc_2608_muxgate_11848
* NET 2701 = subckt_1750_sff1_x4.sff_m
* NET 2703 = subckt_1750_sff1_x4.ckr
* NET 2704 = subckt_1750_sff1_x4.nckr
* NET 2706 = abc_11867_new_n1924
* NET 2707 = abc_11867_new_n1883
* NET 2711 = abc_11867_new_n1882
* NET 2715 = abc_11867_new_n1703
* NET 2718 = abc_11867_new_n1126
* NET 2723 = abc_11867_new_n848
* NET 2727 = abc_11867_new_n956
* NET 2732 = abc_11867_new_n957
* NET 2734 = abc_11867_new_n1102
* NET 2743 = abc_11867_new_n1432
* NET 2745 = abc_11867_new_n1100
* NET 2746 = abc_11867_new_n1101
* NET 2748 = abc_11867_new_n767
* NET 2749 = abc_11867_new_n769
* NET 2754 = abc_11867_new_n850
* NET 2756 = abc_11867_new_n612
* NET 2760 = abc_11867_new_n570
* NET 2763 = abc_11867_new_n806
* NET 2764 = abc_11867_new_n653
* NET 2769 = abc_11867_new_n776
* NET 2771 = abc_11867_new_n834
* NET 2772 = abc_11867_new_n833
* NET 2773 = abc_11867_new_n835
* NET 2775 = abc_11867_new_n622
* NET 2776 = abc_11867_new_n817
* NET 2781 = abc_11867_new_n555
* NET 2782 = abc_11867_new_n573
* NET 2783 = abc_11867_new_n593
* NET 2784 = abc_11867_new_n505
* NET 2787 = abc_11867_new_n592
* NET 2789 = abc_11867_new_n634
* NET 2795 = abc_11867_new_n811
* NET 2798 = abc_11867_new_n803
* NET 2803 = abc_11867_new_n733
* NET 2805 = flatten_mos6502_auto_fsm_map_cc_288_map_fsm_1405_y[1]
* NET 2847 = abc_11867_new_n807
* NET 2884 = abc_11867_new_n967
* NET 2887 = abc_11867_new_n962
* NET 2890 = abc_11867_new_n427
* NET 2897 = abc_11867_new_n837
* NET 2898 = abc_11867_new_n788
* NET 2904 = abc_11867_new_n1903
* NET 2906 = abc_11867_new_n1768
* NET 2907 = abc_11867_new_n1902
* NET 2910 = abc_11867_new_n1790
* NET 2911 = abc_11867_new_n1901
* NET 2920 = abc_11867_new_n1737
* NET 2922 = abc_11867_new_n1764
* NET 2923 = abc_11867_new_n1757
* NET 2926 = abc_11867_new_n1779
* NET 2927 = abc_11867_new_n1776
* NET 2930 = abc_11867_new_n1781
* NET 2931 = abc_11867_new_n1777
* NET 2933 = abc_11867_new_n1778
* NET 2934 = abc_11867_new_n1775
* NET 2936 = abc_11867_new_n1715
* NET 2937 = abc_11867_new_n1847
* NET 2938 = abc_11867_new_n885
* NET 2939 = do[0]
* NET 2940 = abc_11867_new_n847
* NET 2942 = abc_11867_new_n1701
* NET 2944 = abc_11867_new_n1704
* NET 2945 = abc_11867_new_n1706
* NET 2947 = abc_11867_new_n1707
* NET 2949 = abc_11867_new_n1648
* NET 2958 = abc_11867_new_n770
* NET 2960 = abc_11867_new_n487
* NET 2961 = abc_11867_new_n381
* NET 2962 = abc_11867_new_n488
* NET 2963 = abc_11867_new_n477
* NET 2964 = abc_11867_new_n853
* NET 2965 = abc_11867_new_n852
* NET 2966 = abc_11867_new_n851
* NET 2968 = abc_11867_new_n771
* NET 2972 = abc_11867_new_n778
* NET 2974 = abc_11867_new_n861
* NET 2976 = abc_11867_new_n870
* NET 2978 = abc_11867_new_n779
* NET 2979 = abc_11867_new_n772
* NET 2981 = abc_11867_new_n780
* NET 2983 = abc_11867_new_n550
* NET 2986 = mos6502_state[4]
* NET 2988 = subckt_1629_sff1_x4.sff_s
* NET 2992 = subckt_1629_sff1_x4.sff_m
* NET 2994 = subckt_1629_sff1_x4.ckr
* NET 2995 = subckt_1629_sff1_x4.nckr
* NET 2997 = abc_11867_new_n800
* NET 2998 = abc_11867_new_n556
* NET 2999 = abc_11867_new_n572
* NET 3000 = abc_11867_new_n574
* NET 3001 = abc_11867_new_n560
* NET 3005 = flatten_mos6502_auto_fsm_map_cc_288_map_fsm_1405_y[5]
* NET 3006 = abc_11867_new_n632
* NET 3007 = abc_11867_new_n635
* NET 3009 = abc_11867_new_n789
* NET 3011 = abc_11867_new_n818
* NET 3012 = abc_11867_new_n819
* NET 3015 = abc_11867_new_n814
* NET 3048 = abc_11867_new_n515
* NET 3049 = abc_11867_new_n700
* NET 3055 = flatten_mos6502_auto_fsm_map_cc_288_map_fsm_1405_y[4]
* NET 3058 = abc_11867_new_n808
* NET 3061 = abc_11867_new_n826
* NET 3065 = abc_11867_new_n1739
* NET 3066 = abc_11867_new_n1729
* NET 3073 = abc_11867_new_n1734
* NET 3076 = spare_buffer_74.q
* NET 3078 = abc_11867_new_n1713
* NET 3082 = abc_11867_new_n1709
* NET 3083 = abc_11867_new_n1702
* NET 3085 = abc_11867_new_n1742
* NET 3090 = abc_11867_new_n1758
* NET 3092 = abc_11867_new_n1755
* NET 3095 = abc_11867_new_n1754
* NET 3100 = abc_11867_new_n1752
* NET 3102 = abc_11867_new_n1753
* NET 3106 = abc_11867_new_n1731
* NET 3110 = abc_11867_new_n1819
* NET 3113 = spare_buffer_70.q
* NET 3120 = abc_11867_new_n961
* NET 3121 = abc_11867_new_n1045
* NET 3125 = abc_11867_new_n1044
* NET 3126 = abc_11867_new_n1041
* NET 3133 = abc_11867_new_n491
* NET 3136 = abc_11867_new_n382
* NET 3137 = abc_11867_new_n483
* NET 3141 = abc_11867_new_n1659
* NET 3144 = abc_11867_new_n959
* NET 3148 = spare_buffer_58.q
* NET 3150 = abc_11867_new_n1428
* NET 3154 = abc_11867_new_n590
* NET 3156 = abc_11867_new_n591
* NET 3158 = reset
* NET 3160 = abc_11867_new_n495
* NET 3163 = abc_11867_new_n836
* NET 3164 = abc_11867_new_n506
* NET 3165 = abc_11867_new_n655
* NET 3170 = abc_11867_new_n797
* NET 3171 = abc_11867_new_n798
* NET 3172 = spare_buffer_54.q
* NET 3175 = abc_11867_new_n827
* NET 3178 = abc_11867_new_n731
* NET 3180 = abc_11867_new_n732
* NET 3181 = abc_11867_new_n792
* NET 3246 = abc_11867_new_n1743
* NET 3247 = abc_11867_new_n1744
* NET 3251 = spare_buffer_73.q
* NET 3254 = abc_11867_new_n1682
* NET 3257 = abc_11867_new_n1683
* NET 3258 = abc_11867_new_n1696
* NET 3261 = abc_11867_new_n1649
* NET 3262 = abc_11867_new_n1862
* NET 3265 = abc_11867_new_n1014
* NET 3266 = abc_11867_new_n1771
* NET 3269 = abc_11867_new_n1823
* NET 3271 = abc_11867_new_n1866
* NET 3273 = abc_11867_new_n1820
* NET 3274 = abc_11867_new_n955
* NET 3275 = abc_11867_new_n1868
* NET 3276 = spare_buffer_69.q
* NET 3278 = clk_root_tr_0
* NET 3280 = abc_11867_new_n1046
* NET 3281 = a[8]
* NET 3285 = abc_11867_new_n952
* NET 3288 = abc_11867_new_n950
* NET 3289 = abc_11867_new_n972
* NET 3290 = abc_11867_new_n1042
* NET 3291 = abc_11867_new_n1039
* NET 3294 = abc_11867_new_n575
* NET 3295 = abc_11867_new_n499
* NET 3297 = abc_11867_new_n486
* NET 3300 = abc_11867_new_n520
* NET 3302 = spare_buffer_57.q
* NET 3305 = abc_11867_new_n701
* NET 3307 = abc_11867_new_n489
* NET 3310 = abc_11867_new_n511
* NET 3314 = abc_11867_new_n504
* NET 3315 = abc_11867_new_n510
* NET 3317 = abc_11867_new_n597
* NET 3318 = abc_11867_new_n711
* NET 3320 = abc_11867_new_n428_hfns_5
* NET 3324 = abc_11867_new_n513
* NET 3325 = abc_11867_new_n512
* NET 3326 = abc_11867_new_n561
* NET 3327 = spare_buffer_53.q
* NET 3329 = clk_root_tl_bl_0
* NET 3330 = clk_root_tl_0
* NET 3333 = abc_11867_new_n426_hfns_1
* NET 3334 = abc_11867_new_n739
* NET 3335 = abc_11867_new_n762
* NET 3338 = abc_11867_new_n716
* NET 3341 = abc_11867_new_n802
* NET 3342 = abc_11867_new_n813
* NET 3343 = abc_11867_new_n812
* NET 3388 = abc_11867_new_n1912
* NET 3389 = abc_11867_new_n1723
* NET 3390 = abc_11867_new_n1909
* NET 3392 = abc_11867_new_n1911
* NET 3395 = abc_11867_new_n1717
* NET 3396 = abc_11867_new_n1724
* NET 3398 = abc_11867_new_n1718
* NET 3400 = abc_11867_new_n1692
* NET 3405 = abc_11867_new_n1697
* NET 3411 = abc_11867_new_n1699
* NET 3414 = abc_11867_new_n1650
* NET 3415 = abc_11867_new_n1698
* NET 3429 = abc_11867_new_n1686
* NET 3433 = abc_11867_new_n1772
* NET 3441 = a[0]
* NET 3445 = abc_11867_new_n1865
* NET 3448 = subckt_1724_sff1_x4.sff_s
* NET 3452 = abc_11867_auto_rtlil_cc_2608_muxgate_11796
* NET 3455 = subckt_1724_sff1_x4.sff_m
* NET 3458 = subckt_1724_sff1_x4.ckr
* NET 3459 = subckt_1724_sff1_x4.nckr
* NET 3460 = abc_11867_new_n954
* NET 3462 = abc_11867_new_n953
* NET 3463 = abc_11867_new_n949
* NET 3467 = abc_11867_new_n968
* NET 3469 = abc_11867_new_n918
* NET 3471 = abc_11867_new_n846
* NET 3472 = abc_11867_new_n849
* NET 3478 = abc_11867_new_n1705
* NET 3479 = abc_11867_new_n1708
* NET 3482 = abc_11867_new_n1666
* NET 3484 = abc_11867_new_n1664