* Coriolis Structural SPICE Driver
* Generated on Sep 30, 2024, 15:38
* Cell/Subckt "mac_cts_r".
* 
* INTERF vss
* INTERF vdd
* INTERF reset
* INTERF multiplier[3]
* INTERF multiplier[2]
* INTERF multiplier[1]
* INTERF multiplier[0]
* INTERF multiplicand[3]
* INTERF multiplicand[2]
* INTERF multiplicand[1]
* INTERF multiplicand[0]
* INTERF clk
* INTERF accumulator_out[7]
* INTERF accumulator_out[6]
* INTERF accumulator_out[5]
* INTERF accumulator_out[4]
* INTERF accumulator_out[3]
* INTERF accumulator_out[2]
* INTERF accumulator_out[1]
* INTERF accumulator_out[0]

* Terminal models (aka standard cells) used througout all the hierarchy.
.include tie_x0.spi
.include rowend_x0.spi
.include buf_x8.spi
.include sff1_x4.spi
.include nxr2_x1.spi
.include xr2_x4.spi
.include inv_x1.spi
.include a2_x2.spi
.include nao22_x1.spi
.include na2_x1.spi
.include na3_x1.spi
.include ao22_x2.spi
.include o2_x2.spi
.include a3_x2.spi
.include a4_x2.spi
.include na4_x1.spi
.include mx2_x2.spi
.include oa2a22_x2.spi
.include noa2a22_x1.spi
.include noa2ao222_x1.spi
.include on12_x1.spi
.include an12_x1.spi
.include oa2ao222_x2.spi
.include no2_x1.spi

* Non-terminal models (part of the user's design hierarchy).

.subckt mac_cts_r 0 1 2 11 12 13 14 15 16 17 18 72 74 75 76 77 78 79 80 81
* NET     0 = vss
* NET     1 = vdd
* NET     2 = reset
* NET     3 = partial_product[7]
* NET     4 = partial_product[6]
* NET     5 = partial_product[5]
* NET     6 = partial_product[4]
* NET     7 = partial_product[3]
* NET     8 = partial_product[2]
* NET     9 = partial_product[1]
* NET    10 = partial_product[0]
* NET    11 = multiplier[3]
* NET    12 = multiplier[2]
* NET    13 = multiplier[1]
* NET    14 = multiplier[0]
* NET    15 = multiplicand[3]
* NET    16 = multiplicand[2]
* NET    17 = multiplicand[1]
* NET    18 = multiplicand[0]
* NET    19 = clk_root_tr_tr_2
* NET    20 = clk_root_tr_tr_1
* NET    21 = clk_root_tr_tr_0
* NET    22 = clk_root_tr_tl_2
* NET    23 = clk_root_tr_tl_1
* NET    24 = clk_root_tr_tl_0
* NET    25 = clk_root_tr_br_2
* NET    26 = clk_root_tr_br_1
* NET    27 = clk_root_tr_br_0
* NET    28 = clk_root_tr_bl_2
* NET    29 = clk_root_tr_bl_1
* NET    30 = clk_root_tr_bl_0
* NET    31 = clk_root_tr_0
* NET    32 = clk_root_tl_tr_2
* NET    33 = clk_root_tl_tr_1
* NET    34 = clk_root_tl_tr_0
* NET    35 = clk_root_tl_tl_2
* NET    36 = clk_root_tl_tl_1
* NET    37 = clk_root_tl_tl_0
* NET    38 = clk_root_tl_br_2
* NET    39 = clk_root_tl_br_1
* NET    40 = clk_root_tl_br_0
* NET    41 = clk_root_tl_bl_2
* NET    42 = clk_root_tl_bl_1
* NET    43 = clk_root_tl_bl_0
* NET    44 = clk_root_tl_0
* NET    45 = clk_root_br_tr_2
* NET    46 = clk_root_br_tr_1
* NET    47 = clk_root_br_tr_0
* NET    48 = clk_root_br_tl_2
* NET    49 = clk_root_br_tl_1
* NET    50 = clk_root_br_tl_0
* NET    51 = clk_root_br_br_2
* NET    52 = clk_root_br_br_1
* NET    53 = clk_root_br_br_0
* NET    54 = clk_root_br_bl_2
* NET    55 = clk_root_br_bl_1
* NET    56 = clk_root_br_bl_0
* NET    57 = clk_root_br_0
* NET    58 = clk_root_bl_tr_2
* NET    59 = clk_root_bl_tr_1
* NET    60 = clk_root_bl_tr_0
* NET    61 = clk_root_bl_tl_2
* NET    62 = clk_root_bl_tl_1
* NET    63 = clk_root_bl_tl_0
* NET    64 = clk_root_bl_br_2
* NET    65 = clk_root_bl_br_1
* NET    66 = clk_root_bl_br_0
* NET    67 = clk_root_bl_bl_2
* NET    68 = clk_root_bl_bl_1
* NET    69 = clk_root_bl_bl_0
* NET    70 = clk_root_bl_0
* NET    71 = clk_root_0
* NET    72 = clk
* NET    73 = blockagenet
* NET    74 = accumulator_out[7]
* NET    75 = accumulator_out[6]
* NET    76 = accumulator_out[5]
* NET    77 = accumulator_out[4]
* NET    78 = accumulator_out[3]
* NET    79 = accumulator_out[2]
* NET    80 = accumulator_out[1]
* NET    81 = accumulator_out[0]
* NET    82 = abc_567_new_n99
* NET    83 = abc_567_new_n98
* NET    84 = abc_567_new_n97
* NET    85 = abc_567_new_n96
* NET    86 = abc_567_new_n95
* NET    87 = abc_567_new_n94
* NET    88 = abc_567_new_n93
* NET    89 = abc_567_new_n91
* NET    90 = abc_567_new_n90
* NET    91 = abc_567_new_n89
* NET    92 = abc_567_new_n88
* NET    93 = abc_567_new_n87
* NET    94 = abc_567_new_n86
* NET    95 = abc_567_new_n85
* NET    96 = abc_567_new_n84
* NET    97 = abc_567_new_n83
* NET    98 = abc_567_new_n82
* NET    99 = abc_567_new_n81
* NET   100 = abc_567_new_n80
* NET   101 = abc_567_new_n79
* NET   102 = abc_567_new_n78
* NET   103 = abc_567_new_n77
* NET   104 = abc_567_new_n76
* NET   105 = abc_567_new_n75
* NET   106 = abc_567_new_n74
* NET   107 = abc_567_new_n73
* NET   108 = abc_567_new_n72
* NET   109 = abc_567_new_n71
* NET   110 = abc_567_new_n70
* NET   111 = abc_567_new_n69
* NET   112 = abc_567_new_n68
* NET   113 = abc_567_new_n67
* NET   114 = abc_567_new_n66
* NET   115 = abc_567_new_n65
* NET   116 = abc_567_new_n63
* NET   117 = abc_567_new_n62
* NET   118 = abc_567_new_n61
* NET   119 = abc_567_new_n60
* NET   120 = abc_567_new_n59
* NET   121 = abc_567_new_n58
* NET   122 = abc_567_new_n57
* NET   123 = abc_567_new_n56
* NET   124 = abc_567_new_n55
* NET   125 = abc_567_new_n54
* NET   126 = abc_567_new_n52
* NET   127 = abc_567_new_n51
* NET   128 = abc_567_new_n50
* NET   129 = abc_567_new_n49
* NET   130 = abc_567_new_n47
* NET   131 = abc_567_new_n46
* NET   132 = abc_567_new_n45
* NET   133 = abc_567_new_n44
* NET   134 = abc_567_new_n43
* NET   135 = abc_567_new_n42
* NET   136 = abc_567_new_n188
* NET   137 = abc_567_new_n187
* NET   138 = abc_567_new_n186
* NET   139 = abc_567_new_n185
* NET   140 = abc_567_new_n183
* NET   141 = abc_567_new_n182
* NET   142 = abc_567_new_n181
* NET   143 = abc_567_new_n180
* NET   144 = abc_567_new_n179
* NET   145 = abc_567_new_n178
* NET   146 = abc_567_new_n177
* NET   147 = abc_567_new_n176
* NET   148 = abc_567_new_n175
* NET   149 = abc_567_new_n173
* NET   150 = abc_567_new_n172
* NET   151 = abc_567_new_n171
* NET   152 = abc_567_new_n170
* NET   153 = abc_567_new_n169
* NET   154 = abc_567_new_n168
* NET   155 = abc_567_new_n166
* NET   156 = abc_567_new_n165
* NET   157 = abc_567_new_n164
* NET   158 = abc_567_new_n163
* NET   159 = abc_567_new_n162
* NET   160 = abc_567_new_n161
* NET   161 = abc_567_new_n160
* NET   162 = abc_567_new_n159
* NET   163 = abc_567_new_n157
* NET   164 = abc_567_new_n156
* NET   165 = abc_567_new_n155
* NET   166 = abc_567_new_n154
* NET   167 = abc_567_new_n153
* NET   168 = abc_567_new_n151
* NET   169 = abc_567_new_n150
* NET   170 = abc_567_new_n149
* NET   171 = abc_567_new_n148
* NET   172 = abc_567_new_n147
* NET   173 = abc_567_new_n146
* NET   174 = abc_567_new_n144
* NET   175 = abc_567_new_n143
* NET   176 = abc_567_new_n142
* NET   177 = abc_567_new_n141
* NET   178 = abc_567_new_n139
* NET   179 = abc_567_new_n138
* NET   180 = abc_567_new_n136
* NET   181 = abc_567_new_n134
* NET   182 = abc_567_new_n133
* NET   183 = abc_567_new_n132
* NET   184 = abc_567_new_n131
* NET   185 = abc_567_new_n130
* NET   186 = abc_567_new_n129
* NET   187 = abc_567_new_n128
* NET   188 = abc_567_new_n127
* NET   189 = abc_567_new_n125
* NET   190 = abc_567_new_n124
* NET   191 = abc_567_new_n123
* NET   192 = abc_567_new_n122
* NET   193 = abc_567_new_n121
* NET   194 = abc_567_new_n120
* NET   195 = abc_567_new_n119
* NET   196 = abc_567_new_n118
* NET   197 = abc_567_new_n117
* NET   198 = abc_567_new_n116
* NET   199 = abc_567_new_n115
* NET   200 = abc_567_new_n113
* NET   201 = abc_567_new_n112
* NET   202 = abc_567_new_n111
* NET   203 = abc_567_new_n110
* NET   204 = abc_567_new_n109
* NET   205 = abc_567_new_n108
* NET   206 = abc_567_new_n107
* NET   207 = abc_567_new_n106
* NET   208 = abc_567_new_n105
* NET   209 = abc_567_new_n104
* NET   210 = abc_567_new_n103
* NET   211 = abc_567_new_n102
* NET   212 = abc_567_new_n101
* NET   213 = abc_567_new_n100
* NET   214 = abc_567_auto_rtlil_cc_2608_MuxGate_566
* NET   215 = abc_567_auto_rtlil_cc_2608_MuxGate_564
* NET   216 = abc_567_auto_rtlil_cc_2608_MuxGate_562
* NET   217 = abc_567_auto_rtlil_cc_2608_MuxGate_560
* NET   218 = abc_567_auto_rtlil_cc_2608_MuxGate_558
* NET   219 = abc_567_auto_rtlil_cc_2608_MuxGate_556
* NET   220 = abc_567_auto_rtlil_cc_2608_MuxGate_554
* NET   221 = abc_567_auto_rtlil_cc_2608_MuxGate_552
* NET   222 = abc_567_auto_rtlil_cc_2608_MuxGate_550
* NET   223 = abc_567_auto_rtlil_cc_2608_MuxGate_548
* NET   224 = abc_567_auto_rtlil_cc_2608_MuxGate_546
* NET   225 = abc_567_auto_rtlil_cc_2608_MuxGate_544
* NET   226 = abc_567_auto_rtlil_cc_2608_MuxGate_542
* NET   227 = abc_567_auto_rtlil_cc_2608_MuxGate_540
* NET   228 = abc_567_auto_rtlil_cc_2608_MuxGate_538
* NET   229 = abc_567_auto_rtlil_cc_2608_MuxGate_536

xfeed_6739 0 1 tie_x0
xfeed_6738 0 1 tie_x0
xfeed_6737 0 1 tie_x0
xfeed_6736 0 1 tie_x0
xfeed_6735 0 1 tie_x0
xfeed_6734 0 1 rowend_x0
xfeed_6733 0 1 tie_x0
xfeed_6732 0 1 tie_x0
xfeed_6731 0 1 tie_x0
xfeed_409 0 1 tie_x0
xfeed_408 0 1 tie_x0
xfeed_407 0 1 tie_x0
xfeed_406 0 1 tie_x0
xfeed_405 0 1 tie_x0
xfeed_404 0 1 tie_x0
xfeed_403 0 1 tie_x0
xfeed_402 0 1 tie_x0
xfeed_401 0 1 tie_x0
xfeed_400 0 1 tie_x0
xspare_buffer_44 0 1 50 57 buf_x8
xspare_buffer_42 0 1 51 57 buf_x8
xspare_buffer_41 0 1 52 57 buf_x8
xspare_buffer_40 0 1 53 57 buf_x8
xfeed_7276 0 1 tie_x0
xfeed_7275 0 1 tie_x0
xfeed_7274 0 1 tie_x0
xfeed_7273 0 1 tie_x0
xfeed_7272 0 1 tie_x0
xfeed_7271 0 1 tie_x0
xfeed_7270 0 1 tie_x0
xfeed_2437 0 1 tie_x0
xfeed_2436 0 1 tie_x0
xfeed_2435 0 1 tie_x0
xfeed_2434 0 1 tie_x0
xfeed_2433 0 1 tie_x0
xfeed_2432 0 1 tie_x0
xfeed_2431 0 1 tie_x0
xfeed_2430 0 1 tie_x0
xspare_buffer_49 0 1 46 57 buf_x8
xspare_buffer_48 0 1 47 57 buf_x8
xspare_buffer_46 0 1 48 57 buf_x8
xspare_buffer_45 0 1 49 57 buf_x8
xfeed_7279 0 1 tie_x0
xfeed_7278 0 1 tie_x0
xfeed_7277 0 1 tie_x0
xfeed_6749 0 1 tie_x0
xfeed_6748 0 1 tie_x0
xfeed_6747 0 1 tie_x0
xfeed_6746 0 1 tie_x0
xfeed_6745 0 1 tie_x0
xfeed_6744 0 1 tie_x0
xfeed_6743 0 1 tie_x0
xfeed_6742 0 1 tie_x0
xfeed_6741 0 1 tie_x0
xfeed_6740 0 1 tie_x0
xfeed_2439 0 1 tie_x0
xfeed_2438 0 1 tie_x0
xfeed_419 0 1 tie_x0
xfeed_418 0 1 tie_x0
xfeed_417 0 1 tie_x0
xfeed_416 0 1 tie_x0
xfeed_415 0 1 tie_x0
xfeed_414 0 1 tie_x0
xfeed_413 0 1 tie_x0
xfeed_412 0 1 tie_x0
xfeed_411 0 1 tie_x0
xfeed_410 0 1 tie_x0
xspare_buffer_50 0 1 45 57 buf_x8
xfeed_1900 0 1 tie_x0
xfeed_1901 0 1 tie_x0
xfeed_1902 0 1 rowend_x0
xfeed_1903 0 1 tie_x0
xfeed_1904 0 1 tie_x0
xfeed_1905 0 1 tie_x0
xfeed_1906 0 1 tie_x0
xfeed_1907 0 1 tie_x0
xfeed_1908 0 1 tie_x0
xfeed_1909 0 1 tie_x0
xfeed_7283 0 1 tie_x0
xfeed_7282 0 1 tie_x0
xfeed_7281 0 1 tie_x0
xfeed_7280 0 1 tie_x0
xfeed_2444 0 1 tie_x0
xfeed_2443 0 1 tie_x0
xfeed_2442 0 1 tie_x0
xfeed_2441 0 1 tie_x0
xfeed_2440 0 1 tie_x0
xspare_buffer_58 0 1 38 44 buf_x8
xspare_buffer_57 0 1 39 44 buf_x8
xspare_buffer_56 0 1 40 44 buf_x8
xspare_buffer_54 0 1 41 44 buf_x8
xspare_buffer_53 0 1 42 44 buf_x8
xspare_buffer_52 0 1 43 44 buf_x8
xfeed_7289 0 1 tie_x0
xfeed_7288 0 1 tie_x0
xfeed_7287 0 1 tie_x0
xfeed_7286 0 1 tie_x0
xfeed_7285 0 1 tie_x0
xfeed_7284 0 1 tie_x0
xfeed_6759 0 1 rowend_x0
xfeed_6758 0 1 tie_x0
xfeed_6757 0 1 tie_x0
xfeed_6756 0 1 tie_x0
xfeed_6755 0 1 tie_x0
xfeed_6754 0 1 tie_x0
xfeed_6753 0 1 tie_x0
xfeed_6752 0 1 tie_x0
xfeed_6751 0 1 tie_x0
xfeed_6750 0 1 tie_x0
xfeed_2449 0 1 tie_x0
xfeed_2448 0 1 tie_x0
xfeed_2447 0 1 tie_x0
xfeed_2446 0 1 tie_x0
xfeed_2445 0 1 tie_x0
xfeed_429 0 1 tie_x0
xfeed_428 0 1 tie_x0
xfeed_427 0 1 tie_x0
xfeed_426 0 1 tie_x0
xfeed_425 0 1 tie_x0
xfeed_424 0 1 tie_x0
xfeed_423 0 1 tie_x0
xfeed_422 0 1 tie_x0
xfeed_421 0 1 tie_x0
xfeed_420 0 1 tie_x0
xfeed_1910 0 1 tie_x0
xfeed_1911 0 1 tie_x0
xfeed_1912 0 1 tie_x0
xfeed_1913 0 1 tie_x0
xfeed_1914 0 1 tie_x0
xfeed_1915 0 1 tie_x0
xfeed_1916 0 1 tie_x0
xfeed_1917 0 1 tie_x0
xfeed_1918 0 1 tie_x0
xfeed_1919 0 1 tie_x0
xfeed_7290 0 1 tie_x0
xfeed_2451 0 1 tie_x0
xfeed_2450 0 1 tie_x0
xspare_buffer_69 0 1 29 31 buf_x8
xspare_buffer_68 0 1 30 31 buf_x8
xspare_buffer_66 0 1 32 44 buf_x8
xspare_buffer_65 0 1 33 44 buf_x8
xspare_buffer_64 0 1 34 44 buf_x8
xspare_buffer_62 0 1 35 44 buf_x8
xspare_buffer_61 0 1 36 44 buf_x8
xspare_buffer_60 0 1 37 44 buf_x8
xfeed_7299 0 1 tie_x0
xfeed_7298 0 1 tie_x0
xfeed_7297 0 1 rowend_x0
xfeed_7296 0 1 tie_x0
xfeed_7295 0 1 tie_x0
xfeed_7294 0 1 tie_x0
xfeed_7293 0 1 tie_x0
xfeed_7292 0 1 tie_x0
xfeed_7291 0 1 tie_x0
xfeed_6769 0 1 tie_x0
xfeed_6768 0 1 tie_x0
xfeed_6767 0 1 tie_x0
xfeed_6766 0 1 tie_x0
xfeed_6765 0 1 tie_x0
xfeed_6764 0 1 tie_x0
xfeed_6763 0 1 tie_x0
xfeed_6762 0 1 tie_x0
xfeed_6761 0 1 tie_x0
xfeed_6760 0 1 tie_x0
xfeed_2459 0 1 tie_x0
xfeed_2458 0 1 tie_x0
xfeed_2457 0 1 tie_x0
xfeed_2456 0 1 tie_x0
xfeed_2455 0 1 tie_x0
xfeed_2454 0 1 tie_x0
xfeed_2453 0 1 tie_x0
xfeed_2452 0 1 tie_x0
xfeed_439 0 1 tie_x0
xfeed_438 0 1 tie_x0
xfeed_437 0 1 tie_x0
xfeed_436 0 1 tie_x0
xfeed_435 0 1 tie_x0
xfeed_434 0 1 tie_x0
xfeed_433 0 1 tie_x0
xfeed_432 0 1 tie_x0
xfeed_431 0 1 tie_x0
xfeed_430 0 1 tie_x0
xfeed_1920 0 1 tie_x0
xfeed_1921 0 1 tie_x0
xfeed_1922 0 1 tie_x0
xfeed_1923 0 1 tie_x0
xfeed_1924 0 1 tie_x0
xfeed_1925 0 1 tie_x0
xfeed_1926 0 1 tie_x0
xfeed_1927 0 1 tie_x0
xfeed_1928 0 1 rowend_x0
xfeed_1929 0 1 tie_x0
xspare_buffer_77 0 1 23 31 buf_x8
xspare_buffer_76 0 1 24 31 buf_x8
xspare_buffer_74 0 1 25 31 buf_x8
xspare_buffer_73 0 1 26 31 buf_x8
xspare_buffer_72 0 1 27 31 buf_x8
xspare_buffer_70 0 1 28 31 buf_x8
xspare_buffer_78 0 1 22 31 buf_x8
xfeed_6779 0 1 tie_x0
xfeed_6778 0 1 tie_x0
xfeed_6777 0 1 tie_x0
xfeed_6776 0 1 tie_x0
xfeed_6775 0 1 tie_x0
xfeed_6774 0 1 tie_x0
xfeed_6773 0 1 tie_x0
xfeed_6772 0 1 tie_x0
xfeed_6771 0 1 tie_x0
xfeed_6770 0 1 tie_x0
xfeed_2469 0 1 tie_x0
xfeed_2468 0 1 tie_x0
xfeed_2467 0 1 tie_x0
xfeed_2466 0 1 tie_x0
xfeed_2465 0 1 tie_x0
xfeed_2464 0 1 tie_x0
xfeed_2463 0 1 tie_x0
xfeed_2462 0 1 tie_x0
xfeed_2461 0 1 tie_x0
xfeed_2460 0 1 tie_x0
xfeed_449 0 1 tie_x0
xfeed_448 0 1 tie_x0
xfeed_447 0 1 tie_x0
xfeed_446 0 1 tie_x0
xfeed_445 0 1 tie_x0
xfeed_444 0 1 tie_x0
xfeed_443 0 1 tie_x0
xfeed_442 0 1 tie_x0
xfeed_441 0 1 tie_x0
xfeed_440 0 1 tie_x0
xfeed_1930 0 1 tie_x0
xfeed_1931 0 1 tie_x0
xfeed_1932 0 1 tie_x0
xfeed_1933 0 1 tie_x0
xfeed_1934 0 1 tie_x0
xfeed_1935 0 1 tie_x0
xfeed_1936 0 1 tie_x0
xfeed_1937 0 1 tie_x0
xfeed_1938 0 1 tie_x0
xfeed_1939 0 1 tie_x0
xspare_buffer_80 0 1 21 31 buf_x8
xspare_buffer_81 0 1 20 31 buf_x8
xspare_buffer_82 0 1 19 31 buf_x8
xfeed_6789 0 1 tie_x0
xfeed_6788 0 1 tie_x0
xfeed_6787 0 1 tie_x0
xfeed_6786 0 1 tie_x0
xfeed_6785 0 1 tie_x0
xfeed_6784 0 1 tie_x0
xfeed_6783 0 1 tie_x0
xfeed_6782 0 1 tie_x0
xfeed_6781 0 1 tie_x0
xfeed_6780 0 1 tie_x0
xfeed_2479 0 1 tie_x0
xfeed_2478 0 1 tie_x0
xfeed_2477 0 1 tie_x0
xfeed_2476 0 1 tie_x0
xfeed_2475 0 1 tie_x0
xfeed_2474 0 1 tie_x0
xfeed_2473 0 1 tie_x0
xfeed_2472 0 1 tie_x0
xfeed_2471 0 1 tie_x0
xfeed_2470 0 1 tie_x0
xfeed_459 0 1 tie_x0
xfeed_458 0 1 tie_x0
xfeed_457 0 1 tie_x0
xfeed_456 0 1 tie_x0
xfeed_455 0 1 tie_x0
xfeed_454 0 1 tie_x0
xfeed_453 0 1 tie_x0
xfeed_452 0 1 tie_x0
xfeed_451 0 1 tie_x0
xfeed_450 0 1 tie_x0
xsubckt_155_sff1_x4 0 1 3 222 53 sff1_x4
xfeed_1940 0 1 tie_x0
xfeed_1941 0 1 tie_x0
xfeed_1942 0 1 tie_x0
xfeed_1943 0 1 tie_x0
xfeed_1944 0 1 tie_x0
xfeed_1945 0 1 tie_x0
xfeed_1946 0 1 tie_x0
xfeed_1947 0 1 tie_x0
xfeed_1948 0 1 tie_x0
xfeed_1949 0 1 tie_x0
xfeed_7409 0 1 tie_x0
xfeed_7408 0 1 tie_x0
xfeed_7407 0 1 tie_x0
xfeed_7406 0 1 tie_x0
xfeed_7405 0 1 tie_x0
xfeed_7404 0 1 tie_x0
xfeed_7403 0 1 tie_x0
xfeed_7402 0 1 tie_x0
xfeed_7401 0 1 tie_x0
xfeed_7400 0 1 tie_x0
xsubckt_18_nxr2_x1 0 1 119 125 120 nxr2_x1
xfeed_6799 0 1 tie_x0
xfeed_6798 0 1 tie_x0
xfeed_6797 0 1 tie_x0
xfeed_6796 0 1 tie_x0
xfeed_6795 0 1 tie_x0
xfeed_6794 0 1 tie_x0
xfeed_6793 0 1 tie_x0
xfeed_6792 0 1 tie_x0
xfeed_6791 0 1 tie_x0
xfeed_6790 0 1 tie_x0
xfeed_2489 0 1 tie_x0
xfeed_2488 0 1 tie_x0
xfeed_2487 0 1 tie_x0
xfeed_2486 0 1 tie_x0
xfeed_2485 0 1 tie_x0
xfeed_2484 0 1 tie_x0
xfeed_2483 0 1 tie_x0
xfeed_2482 0 1 tie_x0
xfeed_2481 0 1 tie_x0
xfeed_2480 0 1 tie_x0
xfeed_469 0 1 tie_x0
xfeed_468 0 1 tie_x0
xfeed_467 0 1 tie_x0
xfeed_466 0 1 tie_x0
xfeed_465 0 1 tie_x0
xfeed_464 0 1 tie_x0
xfeed_463 0 1 tie_x0
xfeed_462 0 1 tie_x0
xfeed_461 0 1 tie_x0
xfeed_460 0 1 tie_x0
xfeed_1950 0 1 tie_x0
xfeed_1951 0 1 tie_x0
xfeed_1952 0 1 tie_x0
xfeed_1953 0 1 rowend_x0
xfeed_1954 0 1 tie_x0
xfeed_1955 0 1 tie_x0
xfeed_1956 0 1 tie_x0
xfeed_1957 0 1 tie_x0
xfeed_1958 0 1 tie_x0
xfeed_1959 0 1 tie_x0
xfeed_7416 0 1 tie_x0
xfeed_7415 0 1 tie_x0
xfeed_7414 0 1 tie_x0
xfeed_7413 0 1 tie_x0
xfeed_7412 0 1 rowend_x0
xfeed_7411 0 1 tie_x0
xfeed_7410 0 1 tie_x0
xfeed_3109 0 1 tie_x0
xfeed_3108 0 1 tie_x0
xfeed_3107 0 1 tie_x0
xfeed_3106 0 1 tie_x0
xfeed_3105 0 1 tie_x0
xfeed_3104 0 1 tie_x0
xfeed_3103 0 1 tie_x0
xfeed_3102 0 1 tie_x0
xfeed_3101 0 1 tie_x0
xfeed_3100 0 1 tie_x0
xsubckt_137_xr2_x4 0 1 144 75 4 xr2_x4
xfeed_7419 0 1 tie_x0
xfeed_7418 0 1 tie_x0
xfeed_7417 0 1 tie_x0
xfeed_2499 0 1 tie_x0
xfeed_2498 0 1 tie_x0
xfeed_2497 0 1 tie_x0
xfeed_2496 0 1 tie_x0
xfeed_2495 0 1 tie_x0
xfeed_2494 0 1 tie_x0
xfeed_2493 0 1 tie_x0
xfeed_2492 0 1 tie_x0
xfeed_2491 0 1 tie_x0
xfeed_2490 0 1 tie_x0
xfeed_479 0 1 tie_x0
xfeed_478 0 1 tie_x0
xfeed_477 0 1 tie_x0
xfeed_476 0 1 tie_x0
xfeed_475 0 1 tie_x0
xfeed_474 0 1 tie_x0
xfeed_473 0 1 tie_x0
xfeed_472 0 1 tie_x0
xfeed_471 0 1 tie_x0
xfeed_470 0 1 tie_x0
xfeed_1960 0 1 tie_x0
xfeed_1961 0 1 tie_x0
xfeed_1962 0 1 tie_x0
xfeed_1963 0 1 tie_x0
xfeed_1964 0 1 tie_x0
xfeed_1965 0 1 tie_x0
xfeed_1966 0 1 tie_x0
xfeed_1967 0 1 tie_x0
xfeed_1968 0 1 tie_x0
xfeed_1969 0 1 tie_x0
xfeed_7423 0 1 tie_x0
xfeed_7422 0 1 tie_x0
xfeed_7421 0 1 tie_x0
xfeed_7420 0 1 tie_x0
xfeed_3119 0 1 tie_x0
xfeed_3118 0 1 tie_x0
xfeed_3117 0 1 tie_x0
xfeed_3116 0 1 tie_x0
xfeed_3115 0 1 tie_x0
xfeed_3114 0 1 tie_x0
xfeed_3113 0 1 tie_x0
xfeed_3112 0 1 tie_x0
xfeed_3111 0 1 tie_x0
xfeed_3110 0 1 tie_x0
xfeed_7429 0 1 tie_x0
xfeed_7428 0 1 tie_x0
xfeed_7427 0 1 tie_x0
xfeed_7426 0 1 tie_x0
xfeed_7425 0 1 tie_x0
xfeed_7424 0 1 tie_x0
xfeed_489 0 1 tie_x0
xfeed_488 0 1 tie_x0
xfeed_487 0 1 tie_x0
xfeed_486 0 1 tie_x0
xfeed_485 0 1 tie_x0
xfeed_484 0 1 tie_x0
xfeed_483 0 1 tie_x0
xfeed_482 0 1 tie_x0
xfeed_481 0 1 tie_x0
xfeed_480 0 1 tie_x0
xfeed_1970 0 1 tie_x0
xfeed_1971 0 1 tie_x0
xfeed_1972 0 1 tie_x0
xfeed_1973 0 1 tie_x0
xfeed_1974 0 1 tie_x0
xfeed_1975 0 1 tie_x0
xfeed_1976 0 1 tie_x0
xfeed_1977 0 1 tie_x0
xfeed_1978 0 1 tie_x0
xfeed_1979 0 1 tie_x0
xfeed_7430 0 1 tie_x0
xfeed_3129 0 1 tie_x0
xfeed_3128 0 1 tie_x0
xfeed_3127 0 1 tie_x0
xfeed_3126 0 1 tie_x0
xfeed_3125 0 1 tie_x0
xfeed_3124 0 1 tie_x0
xfeed_3123 0 1 tie_x0
xfeed_3122 0 1 tie_x0
xfeed_3121 0 1 tie_x0
xfeed_3120 0 1 tie_x0
xsubckt_0_inv_x1 0 1 135 78 inv_x1
xsubckt_2_inv_x1 0 1 133 11 inv_x1
xsubckt_4_inv_x1 0 1 131 2 inv_x1
xfeed_7439 0 1 tie_x0
xfeed_7438 0 1 tie_x0
xfeed_7437 0 1 tie_x0
xfeed_7436 0 1 tie_x0
xfeed_7435 0 1 tie_x0
xfeed_7434 0 1 tie_x0
xfeed_7433 0 1 tie_x0
xfeed_7432 0 1 tie_x0
xfeed_7431 0 1 tie_x0
xfeed_6909 0 1 tie_x0
xfeed_6908 0 1 tie_x0
xfeed_6907 0 1 tie_x0
xfeed_6906 0 1 tie_x0
xfeed_6905 0 1 tie_x0
xfeed_6904 0 1 tie_x0
xfeed_6903 0 1 rowend_x0
xfeed_6902 0 1 tie_x0
xfeed_6901 0 1 tie_x0
xfeed_6900 0 1 tie_x0
xfeed_499 0 1 tie_x0
xfeed_498 0 1 tie_x0
xfeed_497 0 1 tie_x0
xfeed_496 0 1 tie_x0
xfeed_495 0 1 tie_x0
xfeed_494 0 1 tie_x0
xfeed_493 0 1 tie_x0
xfeed_492 0 1 tie_x0
xfeed_491 0 1 tie_x0
xfeed_490 0 1 tie_x0
xfeed_1980 0 1 tie_x0
xfeed_1981 0 1 tie_x0
xfeed_1982 0 1 tie_x0
xfeed_1983 0 1 tie_x0
xfeed_1984 0 1 tie_x0
xfeed_1985 0 1 tie_x0
xfeed_1986 0 1 tie_x0
xfeed_1987 0 1 tie_x0
xfeed_1988 0 1 tie_x0
xfeed_1989 0 1 tie_x0
xfeed_3137 0 1 tie_x0
xfeed_3136 0 1 tie_x0
xfeed_3135 0 1 tie_x0
xfeed_3134 0 1 rowend_x0
xfeed_3133 0 1 tie_x0
xfeed_3132 0 1 tie_x0
xfeed_3131 0 1 tie_x0
xfeed_3130 0 1 tie_x0
xfeed_7449 0 1 tie_x0
xfeed_7448 0 1 tie_x0
xfeed_7447 0 1 tie_x0
xfeed_7446 0 1 tie_x0
xfeed_7445 0 1 tie_x0
xfeed_7444 0 1 tie_x0
xfeed_7443 0 1 tie_x0
xfeed_7442 0 1 tie_x0
xfeed_7441 0 1 tie_x0
xfeed_7440 0 1 tie_x0
xfeed_6919 0 1 tie_x0
xfeed_6918 0 1 tie_x0
xfeed_6917 0 1 tie_x0
xfeed_6916 0 1 tie_x0
xfeed_6915 0 1 tie_x0
xfeed_6914 0 1 tie_x0
xfeed_6913 0 1 tie_x0
xfeed_6912 0 1 tie_x0
xfeed_6911 0 1 tie_x0
xfeed_6910 0 1 tie_x0
xfeed_3139 0 1 tie_x0
xfeed_3138 0 1 tie_x0
xfeed_2609 0 1 tie_x0
xfeed_2608 0 1 tie_x0
xfeed_2607 0 1 tie_x0
xfeed_2606 0 1 tie_x0
xfeed_2605 0 1 tie_x0
xfeed_2604 0 1 tie_x0
xfeed_2603 0 1 tie_x0
xfeed_2602 0 1 tie_x0
xfeed_2601 0 1 rowend_x0
xfeed_2600 0 1 tie_x0
xsubckt_81_nxr2_x1 0 1 191 198 193 nxr2_x1
xfeed_1990 0 1 tie_x0
xfeed_1991 0 1 tie_x0
xfeed_1992 0 1 tie_x0
xfeed_1993 0 1 tie_x0
xfeed_1994 0 1 tie_x0
xfeed_1995 0 1 tie_x0
xfeed_1996 0 1 tie_x0
xfeed_1997 0 1 tie_x0
xfeed_1998 0 1 tie_x0
xfeed_1999 0 1 tie_x0
xfeed_3144 0 1 tie_x0
xfeed_3143 0 1 tie_x0
xfeed_3142 0 1 tie_x0
xfeed_3141 0 1 tie_x0
xfeed_3140 0 1 tie_x0
xsubckt_64_a2_x2 0 1 207 84 209 a2_x2
xfeed_7459 0 1 tie_x0
xfeed_7458 0 1 tie_x0
xfeed_7457 0 1 tie_x0
xfeed_7456 0 1 tie_x0
xfeed_7455 0 1 tie_x0
xfeed_7454 0 1 tie_x0
xfeed_7453 0 1 tie_x0
xfeed_7452 0 1 tie_x0
xfeed_7451 0 1 tie_x0
xfeed_7450 0 1 tie_x0
xfeed_6929 0 1 tie_x0
xfeed_6928 0 1 tie_x0
xfeed_6927 0 1 tie_x0
xfeed_6926 0 1 tie_x0
xfeed_6925 0 1 tie_x0
xfeed_6924 0 1 tie_x0
xfeed_6923 0 1 tie_x0
xfeed_6922 0 1 tie_x0
xfeed_6921 0 1 tie_x0
xfeed_6920 0 1 tie_x0
xfeed_3149 0 1 tie_x0
xfeed_3148 0 1 tie_x0
xfeed_3147 0 1 tie_x0
xfeed_3146 0 1 tie_x0
xfeed_3145 0 1 tie_x0
xfeed_2619 0 1 tie_x0
xfeed_2618 0 1 tie_x0
xfeed_2617 0 1 tie_x0
xfeed_2616 0 1 tie_x0
xfeed_2615 0 1 tie_x0
xfeed_2614 0 1 tie_x0
xfeed_2613 0 1 tie_x0
xfeed_2612 0 1 tie_x0
xfeed_2611 0 1 tie_x0
xfeed_2610 0 1 tie_x0
xsubckt_134_nao22_x1 0 1 147 151 156 159 nao22_x1
xfeed_3151 0 1 tie_x0
xfeed_3150 0 1 tie_x0
xfeed_7469 0 1 tie_x0
xfeed_7468 0 1 tie_x0
xfeed_7467 0 1 tie_x0
xfeed_7466 0 1 tie_x0
xfeed_7465 0 1 tie_x0
xfeed_7464 0 1 tie_x0
xfeed_7463 0 1 tie_x0
xfeed_7462 0 1 tie_x0
xfeed_7461 0 1 tie_x0
xfeed_7460 0 1 tie_x0
xfeed_6939 0 1 tie_x0
xfeed_6938 0 1 tie_x0
xfeed_6937 0 1 tie_x0
xfeed_6936 0 1 tie_x0
xfeed_6935 0 1 tie_x0
xfeed_6934 0 1 tie_x0
xfeed_6933 0 1 tie_x0
xfeed_6932 0 1 tie_x0
xfeed_6931 0 1 tie_x0
xfeed_6930 0 1 tie_x0
xfeed_3159 0 1 tie_x0
xfeed_3158 0 1 tie_x0
xfeed_3157 0 1 tie_x0
xfeed_3156 0 1 tie_x0
xfeed_3155 0 1 tie_x0
xfeed_3154 0 1 tie_x0
xfeed_3153 0 1 tie_x0
xfeed_3152 0 1 tie_x0
xfeed_2629 0 1 tie_x0
xfeed_2628 0 1 tie_x0
xfeed_2627 0 1 tie_x0
xfeed_2626 0 1 tie_x0
xfeed_2625 0 1 tie_x0
xfeed_2624 0 1 tie_x0
xfeed_2623 0 1 tie_x0
xfeed_2622 0 1 tie_x0
xfeed_2621 0 1 tie_x0
xfeed_2620 0 1 tie_x0
xfeed_609 0 1 tie_x0
xfeed_608 0 1 tie_x0
xfeed_607 0 1 tie_x0
xfeed_606 0 1 tie_x0
xfeed_605 0 1 tie_x0
xfeed_604 0 1 tie_x0
xfeed_603 0 1 tie_x0
xfeed_602 0 1 tie_x0
xfeed_601 0 1 tie_x0
xfeed_600 0 1 tie_x0
xfeed_7479 0 1 tie_x0
xfeed_7478 0 1 tie_x0
xfeed_7477 0 1 tie_x0
xfeed_7476 0 1 tie_x0
xfeed_7475 0 1 tie_x0
xfeed_7474 0 1 tie_x0
xfeed_7473 0 1 tie_x0
xfeed_7472 0 1 tie_x0
xfeed_7471 0 1 tie_x0
xfeed_7470 0 1 tie_x0
xfeed_6949 0 1 tie_x0
xfeed_6948 0 1 tie_x0
xfeed_6947 0 1 tie_x0
xfeed_6946 0 1 tie_x0
xfeed_6945 0 1 tie_x0
xfeed_6944 0 1 tie_x0
xfeed_6943 0 1 tie_x0
xfeed_6942 0 1 tie_x0
xfeed_6941 0 1 rowend_x0
xfeed_6940 0 1 tie_x0
xfeed_3169 0 1 tie_x0
xfeed_3168 0 1 tie_x0
xfeed_3167 0 1 tie_x0
xfeed_3166 0 1 tie_x0
xfeed_3165 0 1 tie_x0
xfeed_3164 0 1 tie_x0
xfeed_3163 0 1 tie_x0
xfeed_3162 0 1 tie_x0
xfeed_3161 0 1 tie_x0
xfeed_3160 0 1 tie_x0
xfeed_2639 0 1 tie_x0
xfeed_2638 0 1 tie_x0
xfeed_2637 0 1 tie_x0
xfeed_2636 0 1 tie_x0
xfeed_2635 0 1 tie_x0
xfeed_2634 0 1 tie_x0
xfeed_2633 0 1 tie_x0
xfeed_2632 0 1 tie_x0
xfeed_2631 0 1 tie_x0
xfeed_2630 0 1 tie_x0
xfeed_619 0 1 tie_x0
xfeed_618 0 1 tie_x0
xfeed_617 0 1 tie_x0
xfeed_616 0 1 tie_x0
xfeed_615 0 1 tie_x0
xfeed_614 0 1 tie_x0
xfeed_613 0 1 tie_x0
xfeed_612 0 1 tie_x0
xfeed_611 0 1 tie_x0
xfeed_610 0 1 tie_x0
xfeed_7489 0 1 tie_x0
xfeed_7488 0 1 tie_x0
xfeed_7487 0 1 tie_x0
xfeed_7486 0 1 tie_x0
xfeed_7485 0 1 tie_x0
xfeed_7484 0 1 tie_x0
xfeed_7483 0 1 tie_x0
xfeed_7482 0 1 tie_x0
xfeed_7481 0 1 tie_x0
xfeed_7480 0 1 tie_x0
xfeed_6959 0 1 tie_x0
xfeed_6958 0 1 tie_x0
xfeed_6957 0 1 tie_x0
xfeed_6956 0 1 tie_x0
xfeed_6955 0 1 tie_x0
xfeed_6954 0 1 tie_x0
xfeed_6953 0 1 tie_x0
xfeed_6952 0 1 tie_x0
xfeed_6951 0 1 tie_x0
xfeed_6950 0 1 tie_x0
xfeed_3179 0 1 tie_x0
xfeed_3178 0 1 tie_x0
xfeed_3177 0 1 tie_x0
xfeed_3176 0 1 tie_x0
xfeed_3175 0 1 tie_x0
xfeed_3174 0 1 tie_x0
xfeed_3173 0 1 tie_x0
xfeed_3172 0 1 tie_x0
xfeed_3171 0 1 tie_x0
xfeed_3170 0 1 tie_x0
xfeed_2649 0 1 tie_x0
xfeed_2648 0 1 tie_x0
xfeed_2647 0 1 tie_x0
xfeed_2646 0 1 tie_x0
xfeed_2645 0 1 tie_x0
xfeed_2644 0 1 tie_x0
xfeed_2643 0 1 tie_x0
xfeed_2642 0 1 tie_x0
xfeed_2641 0 1 tie_x0
xfeed_2640 0 1 tie_x0
xfeed_629 0 1 tie_x0
xfeed_628 0 1 tie_x0
xfeed_627 0 1 tie_x0
xfeed_626 0 1 tie_x0
xfeed_625 0 1 tie_x0
xfeed_624 0 1 tie_x0
xfeed_623 0 1 tie_x0
xfeed_622 0 1 tie_x0
xfeed_621 0 1 tie_x0
xfeed_620 0 1 tie_x0
xfeed_8109 0 1 tie_x0
xfeed_8108 0 1 tie_x0
xfeed_8107 0 1 tie_x0
xfeed_8106 0 1 tie_x0
xfeed_8105 0 1 tie_x0
xfeed_8104 0 1 tie_x0
xfeed_8103 0 1 tie_x0
xfeed_8102 0 1 tie_x0
xfeed_8101 0 1 tie_x0
xfeed_8100 0 1 tie_x0
xfeed_7499 0 1 tie_x0
xfeed_7498 0 1 tie_x0
xfeed_7497 0 1 tie_x0
xfeed_7496 0 1 tie_x0
xfeed_7495 0 1 tie_x0
xfeed_7494 0 1 tie_x0
xfeed_7493 0 1 tie_x0
xfeed_7492 0 1 tie_x0
xfeed_7491 0 1 tie_x0
xfeed_7490 0 1 tie_x0
xfeed_6969 0 1 tie_x0
xfeed_6968 0 1 tie_x0
xfeed_6967 0 1 tie_x0
xfeed_6966 0 1 tie_x0
xfeed_6965 0 1 tie_x0
xfeed_6964 0 1 tie_x0
xfeed_6963 0 1 tie_x0
xfeed_6962 0 1 tie_x0
xfeed_6961 0 1 tie_x0
xfeed_6960 0 1 tie_x0
xfeed_3189 0 1 tie_x0
xfeed_3188 0 1 tie_x0
xfeed_3187 0 1 tie_x0
xfeed_3186 0 1 tie_x0
xfeed_3185 0 1 tie_x0
xfeed_3184 0 1 tie_x0
xfeed_3183 0 1 tie_x0
xfeed_3182 0 1 tie_x0
xfeed_3181 0 1 tie_x0
xfeed_3180 0 1 tie_x0
xfeed_2659 0 1 tie_x0
xfeed_2658 0 1 tie_x0
xfeed_2657 0 1 tie_x0
xfeed_2656 0 1 tie_x0
xfeed_2655 0 1 tie_x0
xfeed_2654 0 1 tie_x0
xfeed_2653 0 1 tie_x0
xfeed_2652 0 1 tie_x0
xfeed_2651 0 1 tie_x0
xfeed_2650 0 1 tie_x0
xfeed_639 0 1 tie_x0
xfeed_638 0 1 tie_x0
xfeed_637 0 1 tie_x0
xfeed_636 0 1 tie_x0
xfeed_635 0 1 tie_x0
xfeed_634 0 1 tie_x0
xfeed_633 0 1 tie_x0
xfeed_632 0 1 tie_x0
xfeed_631 0 1 tie_x0
xfeed_630 0 1 tie_x0
xsubckt_80_na2_x1 0 1 192 197 193 na2_x1
xfeed_8116 0 1 tie_x0
xfeed_8115 0 1 tie_x0
xfeed_8114 0 1 tie_x0
xfeed_8113 0 1 tie_x0
xfeed_8112 0 1 tie_x0
xfeed_8111 0 1 tie_x0
xfeed_8110 0 1 tie_x0
xfeed_8119 0 1 tie_x0
xfeed_8118 0 1 tie_x0
xfeed_8117 0 1 tie_x0
xfeed_6979 0 1 tie_x0
xfeed_6978 0 1 tie_x0
xfeed_6977 0 1 tie_x0
xfeed_6976 0 1 tie_x0
xfeed_6975 0 1 tie_x0
xfeed_6974 0 1 tie_x0
xfeed_6973 0 1 tie_x0
xfeed_6972 0 1 tie_x0
xfeed_6971 0 1 tie_x0
xfeed_6970 0 1 tie_x0
xfeed_3199 0 1 tie_x0
xfeed_3198 0 1 tie_x0
xfeed_3197 0 1 tie_x0
xfeed_3196 0 1 tie_x0
xfeed_3195 0 1 tie_x0
xfeed_3194 0 1 tie_x0
xfeed_3193 0 1 tie_x0
xfeed_3192 0 1 tie_x0
xfeed_3191 0 1 tie_x0
xfeed_3190 0 1 tie_x0
xfeed_2669 0 1 tie_x0
xfeed_2668 0 1 tie_x0
xfeed_2667 0 1 tie_x0
xfeed_2666 0 1 tie_x0
xfeed_2665 0 1 rowend_x0
xfeed_2664 0 1 tie_x0
xfeed_2663 0 1 tie_x0
xfeed_2662 0 1 tie_x0
xfeed_2661 0 1 tie_x0
xfeed_2660 0 1 tie_x0
xfeed_646 0 1 tie_x0
xfeed_645 0 1 tie_x0
xfeed_644 0 1 tie_x0
xfeed_643 0 1 tie_x0
xfeed_642 0 1 tie_x0
xfeed_641 0 1 tie_x0
xfeed_640 0 1 tie_x0
xsubckt_62_nxr2_x1 0 1 209 82 212 nxr2_x1
xfeed_8123 0 1 tie_x0
xfeed_8122 0 1 tie_x0
xfeed_8121 0 1 tie_x0
xfeed_8120 0 1 tie_x0
xfeed_649 0 1 tie_x0
xfeed_648 0 1 tie_x0
xfeed_647 0 1 tie_x0
xsubckt_141_na3_x1 0 1 140 152 147 143 na3_x1
xfeed_8129 0 1 tie_x0
xfeed_8128 0 1 tie_x0
xfeed_8127 0 1 tie_x0
xfeed_8126 0 1 tie_x0
xfeed_8125 0 1 tie_x0
xfeed_8124 0 1 tie_x0
xfeed_6989 0 1 tie_x0
xfeed_6988 0 1 tie_x0
xfeed_6987 0 1 tie_x0
xfeed_6986 0 1 tie_x0
xfeed_6985 0 1 tie_x0
xfeed_6984 0 1 tie_x0
xfeed_6983 0 1 tie_x0
xfeed_6982 0 1 tie_x0
xfeed_6981 0 1 tie_x0
xfeed_6980 0 1 tie_x0
xfeed_2679 0 1 tie_x0
xfeed_2678 0 1 tie_x0
xfeed_2677 0 1 tie_x0
xfeed_2676 0 1 tie_x0
xfeed_2675 0 1 tie_x0
xfeed_2674 0 1 tie_x0
xfeed_2673 0 1 tie_x0
xfeed_2672 0 1 tie_x0
xfeed_2671 0 1 tie_x0
xfeed_2670 0 1 tie_x0
xfeed_653 0 1 tie_x0
xfeed_652 0 1 tie_x0
xfeed_651 0 1 tie_x0
xfeed_650 0 1 tie_x0
xfeed_8130 0 1 tie_x0
xfeed_659 0 1 tie_x0
xfeed_658 0 1 tie_x0
xfeed_657 0 1 tie_x0
xfeed_656 0 1 tie_x0
xfeed_655 0 1 tie_x0
xfeed_654 0 1 tie_x0
xsubckt_46_nao22_x1 0 1 92 117 96 94 nao22_x1
xfeed_8139 0 1 tie_x0
xfeed_8138 0 1 tie_x0
xfeed_8137 0 1 tie_x0
xfeed_8136 0 1 tie_x0
xfeed_8135 0 1 tie_x0
xfeed_8134 0 1 tie_x0
xfeed_8133 0 1 tie_x0
xfeed_8132 0 1 tie_x0
xfeed_8131 0 1 tie_x0
xfeed_7609 0 1 tie_x0
xfeed_7608 0 1 tie_x0
xfeed_7607 0 1 tie_x0
xfeed_7606 0 1 tie_x0
xfeed_7605 0 1 tie_x0
xfeed_7604 0 1 tie_x0
xfeed_7603 0 1 tie_x0
xfeed_7602 0 1 tie_x0
xfeed_7601 0 1 tie_x0
xfeed_7600 0 1 tie_x0
xfeed_6999 0 1 tie_x0
xfeed_6998 0 1 tie_x0
xfeed_6997 0 1 tie_x0
xfeed_6996 0 1 tie_x0
xfeed_6995 0 1 tie_x0
xfeed_6994 0 1 tie_x0
xfeed_6993 0 1 tie_x0
xfeed_6992 0 1 tie_x0
xfeed_6991 0 1 tie_x0
xfeed_6990 0 1 tie_x0
xfeed_2689 0 1 tie_x0
xfeed_2688 0 1 tie_x0
xfeed_2687 0 1 tie_x0
xfeed_2686 0 1 tie_x0
xfeed_2685 0 1 tie_x0
xfeed_2684 0 1 tie_x0
xfeed_2683 0 1 tie_x0
xfeed_2682 0 1 tie_x0
xfeed_2681 0 1 tie_x0
xfeed_2680 0 1 tie_x0
xfeed_660 0 1 tie_x0
xfeed_669 0 1 tie_x0
xfeed_668 0 1 tie_x0
xfeed_667 0 1 tie_x0
xfeed_666 0 1 tie_x0
xfeed_665 0 1 tie_x0
xfeed_664 0 1 tie_x0
xfeed_663 0 1 tie_x0
xfeed_662 0 1 tie_x0
xfeed_661 0 1 tie_x0
xfeed_8149 0 1 tie_x0
xfeed_8148 0 1 tie_x0
xfeed_8147 0 1 tie_x0
xfeed_8146 0 1 tie_x0
xfeed_8145 0 1 tie_x0
xfeed_8144 0 1 tie_x0
xfeed_8143 0 1 tie_x0
xfeed_8142 0 1 tie_x0
xfeed_8141 0 1 tie_x0
xfeed_8140 0 1 tie_x0
xfeed_7619 0 1 tie_x0
xfeed_7618 0 1 tie_x0
xfeed_7617 0 1 tie_x0
xfeed_7616 0 1 tie_x0
xfeed_7615 0 1 tie_x0
xfeed_7614 0 1 tie_x0
xfeed_7613 0 1 tie_x0
xfeed_7612 0 1 tie_x0
xfeed_7611 0 1 tie_x0
xfeed_7610 0 1 tie_x0
xfeed_3309 0 1 tie_x0