* Spice description of mac_cts_r_ext_ihp
* Spice driver version 1906871213
* Date ( dd/mm/yyyy hh:mm:ss ): 30/09/2024 at 15:39:46

* INTERF accumulator_out[0] accumulator_out[1] accumulator_out[2] 
* INTERF accumulator_out[3] accumulator_out[4] accumulator_out[5] 
* INTERF accumulator_out[6] accumulator_out[7] clk multiplicand[0] 
* INTERF multiplicand[1] multiplicand[2] multiplicand[3] multiplier[0] 
* INTERF multiplier[1] multiplier[2] multiplier[3] reset vdd vss 


.subckt mac_cts_r_ext_ihp 274 79 112 171 946 945 928 910 497 674 736 686 710 722 711 673 675 777 909 947 
* NET 15 = subckt_159_sff1_x4.sff_s
* NET 19 = subckt_159_sff1_x4.sff_m
* NET 21 = subckt_159_sff1_x4.ckr
* NET 22 = subckt_159_sff1_x4.nckr
* NET 26 = subckt_158_sff1_x4.sff_s
* NET 30 = subckt_158_sff1_x4.sff_m
* NET 31 = subckt_158_sff1_x4.ckr
* NET 33 = subckt_158_sff1_x4.nckr
* NET 44 = abc_567_auto_rtlil_cc_2608_muxgate_558
* NET 52 = subckt_157_sff1_x4.sff_s
* NET 55 = subckt_157_sff1_x4.sff_m
* NET 61 = subckt_157_sff1_x4.ckr
* NET 62 = subckt_157_sff1_x4.nckr
* NET 72 = abc_567_new_n148
* NET 76 = abc_567_new_n149
* NET 79 = accumulator_out[1]
* NET 83 = abc_567_new_n153
* NET 86 = abc_567_new_n157
* NET 93 = abc_567_auto_rtlil_cc_2608_muxgate_556
* NET 94 = abc_567_new_n151
* NET 99 = abc_567_new_n143
* NET 107 = abc_567_new_n156
* NET 112 = accumulator_out[2]
* NET 113 = abc_567_new_n142
* NET 114 = abc_567_new_n141
* NET 117 = abc_567_auto_rtlil_cc_2608_muxgate_554
* NET 118 = abc_567_new_n144
* NET 122 = spare_buffer_82.q
* NET 128 = spare_buffer_78.q
* NET 129 = spare_buffer_66.q
* NET 131 = spare_buffer_62.q
* NET 136 = spare_buffer_81.q
* NET 139 = abc_567_new_n147
* NET 140 = abc_567_new_n146
* NET 141 = abc_567_new_n150
* NET 143 = abc_567_new_n42
* NET 145 = spare_buffer_77.q
* NET 148 = abc_567_new_n138
* NET 149 = spare_buffer_65.q
* NET 152 = spare_buffer_61.q
* NET 154 = spare_buffer_60.q
* NET 171 = accumulator_out[3]
* NET 174 = subckt_149_sff1_x4.sff_s
* NET 177 = subckt_149_sff1_x4.sff_m
* NET 183 = subckt_149_sff1_x4.ckr
* NET 184 = subckt_149_sff1_x4.nckr
* NET 186 = subckt_156_sff1_x4.sff_s
* NET 189 = subckt_156_sff1_x4.sff_m
* NET 193 = subckt_156_sff1_x4.ckr
* NET 195 = clk_root_tl_tr_0
* NET 196 = subckt_156_sff1_x4.nckr
* NET 207 = partial_product[2]
* NET 210 = subckt_150_sff1_x4.sff_s
* NET 213 = abc_567_auto_rtlil_cc_2608_muxgate_540
* NET 215 = subckt_150_sff1_x4.sff_m
* NET 216 = clk_root_tr_tl_0
* NET 218 = subckt_150_sff1_x4.ckr
* NET 219 = subckt_150_sff1_x4.nckr
* NET 220 = abc_567_new_n43
* NET 221 = abc_567_auto_rtlil_cc_2608_muxgate_538
* NET 222 = partial_product[1]
* NET 227 = abc_567_auto_rtlil_cc_2608_muxgate_552
* NET 235 = partial_product[3]
* NET 236 = subckt_151_sff1_x4.sff_s
* NET 242 = subckt_151_sff1_x4.sff_m
* NET 244 = clk_root_tr_tr_0
* NET 245 = subckt_151_sff1_x4.ckr
* NET 247 = subckt_151_sff1_x4.nckr
* NET 248 = abc_567_new_n52
* NET 251 = abc_567_new_n160
* NET 252 = abc_567_new_n155
* NET 262 = abc_567_new_n65
* NET 266 = abc_567_auto_rtlil_cc_2608_muxgate_542
* NET 267 = abc_567_new_n159
* NET 269 = abc_567_new_n154
* NET 271 = abc_567_new_n139
* NET 274 = accumulator_out[0]
* NET 289 = abc_567_auto_rtlil_cc_2608_muxgate_536
* NET 291 = abc_567_new_n51
* NET 295 = subckt_148_sff1_x4.sff_s
* NET 296 = partial_product[0]
* NET 297 = subckt_148_sff1_x4.sff_m
* NET 303 = subckt_148_sff1_x4.ckr
* NET 304 = subckt_148_sff1_x4.nckr
* NET 313 = abc_567_new_n56
* NET 315 = abc_567_new_n47
* NET 319 = abc_567_new_n55
* NET 321 = abc_567_new_n50
* NET 325 = abc_567_new_n63
* NET 329 = abc_567_new_n161
* NET 334 = abc_567_new_n166
* NET 350 = abc_567_new_n91
* NET 354 = subckt_160_sff1_x4.sff_s
* NET 359 = abc_567_auto_rtlil_cc_2608_muxgate_560
* NET 361 = subckt_160_sff1_x4.sff_m
* NET 363 = subckt_160_sff1_x4.ckr
* NET 364 = subckt_160_sff1_x4.nckr
* NET 370 = abc_567_new_n59
* NET 372 = abc_567_new_n49
* NET 374 = abc_567_new_n60
* NET 375 = abc_567_new_n61
* NET 379 = abc_567_new_n164
* NET 386 = spare_buffer_74.q
* NET 388 = abc_567_new_n84
* NET 389 = abc_567_new_n62
* NET 390 = abc_567_new_n88
* NET 392 = spare_buffer_70.q
* NET 394 = spare_buffer_58.q
* NET 396 = spare_buffer_54.q
* NET 406 = subckt_152_sff1_x4.sff_m
* NET 407 = spare_buffer_73.q
* NET 409 = spare_buffer_72.q
* NET 411 = spare_buffer_69.q
* NET 413 = clk_root_tr_0
* NET 414 = spare_buffer_68.q
* NET 416 = subckt_152_sff1_x4.sff_s
* NET 421 = subckt_152_sff1_x4.ckr
* NET 422 = subckt_152_sff1_x4.nckr
* NET 423 = spare_buffer_57.q
* NET 425 = clk_root_tl_br_0
* NET 427 = spare_buffer_53.q
* NET 429 = spare_buffer_52.q
* NET 430 = clk_root_tl_0
* NET 439 = abc_567_new_n87
* NET 445 = abc_567_new_n58
* NET 449 = abc_567_new_n85
* NET 451 = abc_567_new_n89
* NET 463 = abc_567_new_n54
* NET 464 = abc_567_new_n86
* NET 467 = abc_567_new_n83
* NET 469 = abc_567_new_n113
* NET 470 = abc_567_new_n112
* NET 471 = abc_567_new_n93
* NET 472 = abc_567_auto_rtlil_cc_2608_muxgate_544
* NET 474 = abc_567_new_n100
* NET 477 = abc_567_new_n81
* NET 479 = abc_567_new_n82
* NET 482 = abc_567_new_n94
* NET 485 = abc_567_new_n110
* NET 493 = abc_567_new_n79
* NET 497 = clk
* NET 502 = abc_567_new_n57
* NET 506 = abc_567_new_n78
* NET 507 = abc_567_new_n67
* NET 513 = abc_567_new_n95
* NET 515 = abc_567_new_n108
* NET 521 = abc_567_new_n107
* NET 526 = abc_567_new_n101
* NET 535 = abc_567_new_n66
* NET 536 = abc_567_new_n80
* NET 540 = abc_567_new_n103
* NET 541 = abc_567_new_n104
* NET 543 = abc_567_new_n99
* NET 548 = abc_567_new_n74
* NET 552 = abc_567_new_n76
* NET 555 = abc_567_new_n90
* NET 556 = abc_567_new_n111
* NET 568 = abc_567_new_n75
* NET 569 = abc_567_new_n70
* NET 571 = abc_567_new_n77
* NET 572 = abc_567_new_n105
* NET 573 = abc_567_new_n106
* NET 576 = abc_567_new_n118
* NET 581 = spare_buffer_50.q
* NET 583 = abc_567_new_n97
* NET 586 = spare_buffer_46.q
* NET 588 = abc_567_new_n116
* NET 593 = spare_buffer_34.q
* NET 595 = spare_buffer_30.q
* NET 600 = spare_buffer_49.q
* NET 601 = spare_buffer_48.q
* NET 603 = abc_567_new_n109
* NET 606 = spare_buffer_45.q
* NET 609 = spare_buffer_44.q
* NET 610 = abc_567_new_n120
* NET 612 = spare_buffer_33.q
* NET 614 = spare_buffer_32.q
* NET 616 = spare_buffer_29.q
* NET 618 = spare_buffer_28.q
* NET 622 = abc_567_new_n72
* NET 625 = abc_567_new_n98
* NET 631 = abc_567_new_n124
* NET 632 = abc_567_new_n119
* NET 643 = abc_567_new_n68
* NET 645 = abc_567_new_n121
* NET 646 = abc_567_new_n117
* NET 647 = abc_567_new_n122
* NET 650 = abc_567_new_n69
* NET 660 = abc_567_new_n115
* NET 663 = abc_567_new_n123
* NET 673 = multiplier[2]
* NET 674 = multiplicand[0]
* NET 675 = multiplier[3]
* NET 676 = abc_567_new_n71
* NET 677 = abc_567_new_n127
* NET 679 = abc_567_new_n102
* NET 680 = abc_567_new_n44
* NET 681 = abc_567_new_n45
* NET 685 = abc_567_new_n73
* NET 686 = multiplicand[2]
* NET 688 = abc_567_new_n132
* NET 690 = abc_567_new_n129
* NET 691 = abc_567_new_n131
* NET 692 = abc_567_new_n130
* NET 694 = clk_root_0
* NET 702 = abc_567_new_n96
* NET 710 = multiplicand[3]
* NET 711 = multiplier[1]
* NET 715 = abc_567_new_n125
* NET 722 = multiplier[0]
* NET 726 = subckt_154_sff1_x4.sff_m
* NET 727 = abc_567_auto_rtlil_cc_2608_muxgate_548
* NET 728 = subckt_154_sff1_x4.ckr
* NET 733 = abc_567_auto_rtlil_cc_2608_muxgate_546
* NET 734 = subckt_153_sff1_x4.sff_m
* NET 735 = subckt_153_sff1_x4.ckr
* NET 736 = multiplicand[1]
* NET 742 = abc_567_new_n128
* NET 743 = abc_567_new_n133
* NET 744 = abc_567_new_n136
* NET 747 = subckt_154_sff1_x4.sff_s
* NET 750 = subckt_154_sff1_x4.nckr
* NET 753 = subckt_153_sff1_x4.sff_s
* NET 756 = subckt_153_sff1_x4.nckr
* NET 768 = subckt_155_sff1_x4.sff_s
* NET 772 = subckt_155_sff1_x4.sff_m
* NET 773 = abc_567_auto_rtlil_cc_2608_muxgate_550
* NET 775 = subckt_155_sff1_x4.ckr
* NET 776 = subckt_155_sff1_x4.nckr
* NET 777 = reset
* NET 778 = abc_567_new_n134
* NET 779 = abc_567_new_n163
* NET 792 = partial_product[7]
* NET 795 = partial_product[4]
* NET 798 = subckt_161_sff1_x4.sff_s
* NET 801 = subckt_161_sff1_x4.sff_m
* NET 803 = abc_567_auto_rtlil_cc_2608_muxgate_562
* NET 808 = subckt_161_sff1_x4.ckr
* NET 809 = subckt_161_sff1_x4.nckr
* NET 813 = spare_buffer_42.q
* NET 815 = abc_567_new_n162
* NET 816 = abc_567_new_n165
* NET 819 = spare_buffer_38.q
* NET 821 = abc_567_new_n168
* NET 822 = abc_567_new_n173
* NET 825 = spare_buffer_26.q
* NET 827 = spare_buffer_22.q
* NET 831 = spare_buffer_41.q
* NET 834 = abc_567_new_n175
* NET 837 = spare_buffer_37.q
* NET 839 = clk_root_br_0
* NET 841 = abc_567_new_n172
* NET 847 = spare_buffer_25.q
* NET 849 = clk_root_bl_br_0
* NET 851 = spare_buffer_21.q
* NET 853 = spare_buffer_20.q
* NET 854 = clk_root_bl_0
* NET 861 = abc_567_new_n171
* NET 865 = abc_567_new_n178
* NET 866 = abc_567_new_n185
* NET 867 = abc_567_new_n176
* NET 871 = abc_567_new_n181
* NET 872 = abc_567_new_n186
* NET 879 = abc_567_new_n180
* NET 880 = abc_567_new_n169
* NET 888 = abc_567_new_n187
* NET 889 = abc_567_new_n188
* NET 892 = abc_567_new_n179
* NET 897 = abc_567_new_n183
* NET 898 = abc_567_new_n182
* NET 899 = abc_567_new_n46
* NET 909 = vdd
* NET 910 = accumulator_out[7]
* NET 911 = subckt_163_sff1_x4.sff_s
* NET 914 = subckt_163_sff1_x4.sff_m
* NET 916 = abc_567_auto_rtlil_cc_2608_muxgate_566
* NET 921 = clk_root_br_br_0
* NET 922 = subckt_163_sff1_x4.ckr
* NET 923 = subckt_163_sff1_x4.nckr
* NET 924 = abc_567_new_n177
* NET 925 = partial_product[6]
* NET 928 = accumulator_out[6]
* NET 929 = subckt_162_sff1_x4.sff_s
* NET 933 = abc_567_auto_rtlil_cc_2608_muxgate_564
* NET 936 = subckt_162_sff1_x4.sff_m
* NET 938 = clk_root_br_bl_0
* NET 939 = subckt_162_sff1_x4.ckr
* NET 941 = subckt_162_sff1_x4.nckr
* NET 942 = abc_567_new_n170
* NET 943 = partial_product[5]
* NET 945 = accumulator_out[5]
* NET 946 = accumulator_out[4]
* NET 947 = vss
Mtr_02090 909 839 818 909 sg13_lv_pmos L=0.13U W=2.94U AS=0.7056P AD=0.7056P PS=6.37U PD=6.37U 
Mtr_02089 819 818 909 909 sg13_lv_pmos L=0.13U W=2.94U AS=0.7056P AD=0.7056P PS=6.37U PD=6.37U 
Mtr_02088 909 818 819 909 sg13_lv_pmos L=0.13U W=2.94U AS=0.7056P AD=0.7056P PS=6.37U PD=6.37U 
Mtr_02087 909 818 819 909 sg13_lv_pmos L=0.13U W=2.94U AS=0.7056P AD=0.7056P PS=6.37U PD=6.37U 
Mtr_02086 819 818 909 909 sg13_lv_pmos L=0.13U W=2.94U AS=0.7056P AD=0.7056P PS=6.37U PD=6.37U 
Mtr_02085 909 854 596 909 sg13_lv_pmos L=0.13U W=2.94U AS=0.7056P AD=0.7056P PS=6.37U PD=6.37U 
Mtr_02084 595 596 909 909 sg13_lv_pmos L=0.13U W=2.94U AS=0.7056P AD=0.7056P PS=6.37U PD=6.37U 
Mtr_02083 909 596 595 909 sg13_lv_pmos L=0.13U W=2.94U AS=0.7056P AD=0.7056P PS=6.37U PD=6.37U 
Mtr_02082 909 596 595 909 sg13_lv_pmos L=0.13U W=2.94U AS=0.7056P AD=0.7056P PS=6.37U PD=6.37U 
Mtr_02081 595 596 909 909 sg13_lv_pmos L=0.13U W=2.94U AS=0.7056P AD=0.7056P PS=6.37U PD=6.37U 
Mtr_02080 909 854 615 909 sg13_lv_pmos L=0.13U W=2.94U AS=0.7056P AD=0.7056P PS=6.37U PD=6.37U 
Mtr_02079 614 615 909 909 sg13_lv_pmos L=0.13U W=2.94U AS=0.7056P AD=0.7056P PS=6.37U PD=6.37U 
Mtr_02078 909 615 614 909 sg13_lv_pmos L=0.13U W=2.94U AS=0.7056P AD=0.7056P PS=6.37U PD=6.37U 
Mtr_02077 909 615 614 909 sg13_lv_pmos L=0.13U W=2.94U AS=0.7056P AD=0.7056P PS=6.37U PD=6.37U 
Mtr_02076 614 615 909 909 sg13_lv_pmos L=0.13U W=2.94U AS=0.7056P AD=0.7056P PS=6.37U PD=6.37U 
Mtr_02075 909 854 613 909 sg13_lv_pmos L=0.13U W=2.94U AS=0.7056P AD=0.7056P PS=6.37U PD=6.37U 
Mtr_02074 612 613 909 909 sg13_lv_pmos L=0.13U W=2.94U AS=0.7056P AD=0.7056P PS=6.37U PD=6.37U 
Mtr_02073 909 613 612 909 sg13_lv_pmos L=0.13U W=2.94U AS=0.7056P AD=0.7056P PS=6.37U PD=6.37U 
Mtr_02072 909 613 612 909 sg13_lv_pmos L=0.13U W=2.94U AS=0.7056P AD=0.7056P PS=6.37U PD=6.37U 
Mtr_02071 612 613 909 909 sg13_lv_pmos L=0.13U W=2.94U AS=0.7056P AD=0.7056P PS=6.37U PD=6.37U 
Mtr_02070 909 854 594 909 sg13_lv_pmos L=0.13U W=2.94U AS=0.7056P AD=0.7056P PS=6.37U PD=6.37U 
Mtr_02069 593 594 909 909 sg13_lv_pmos L=0.13U W=2.94U AS=0.7056P AD=0.7056P PS=6.37U PD=6.37U 
Mtr_02068 909 594 593 909 sg13_lv_pmos L=0.13U W=2.94U AS=0.7056P AD=0.7056P PS=6.37U PD=6.37U 
Mtr_02067 909 594 593 909 sg13_lv_pmos L=0.13U W=2.94U AS=0.7056P AD=0.7056P PS=6.37U PD=6.37U 
Mtr_02066 593 594 909 909 sg13_lv_pmos L=0.13U W=2.94U AS=0.7056P AD=0.7056P PS=6.37U PD=6.37U 
Mtr_02065 909 839 840 909 sg13_lv_pmos L=0.13U W=2.94U AS=0.7056P AD=0.7056P PS=6.37U PD=6.37U 
Mtr_02064 938 840 909 909 sg13_lv_pmos L=0.13U W=2.94U AS=0.7056P AD=0.7056P PS=6.37U PD=6.37U 
Mtr_02063 909 840 938 909 sg13_lv_pmos L=0.13U W=2.94U AS=0.7056P AD=0.7056P PS=6.37U PD=6.37U 
Mtr_02062 909 840 938 909 sg13_lv_pmos L=0.13U W=2.94U AS=0.7056P AD=0.7056P PS=6.37U PD=6.37U 
Mtr_02061 938 840 909 909 sg13_lv_pmos L=0.13U W=2.94U AS=0.7056P AD=0.7056P PS=6.37U PD=6.37U 
Mtr_02060 909 839 838 909 sg13_lv_pmos L=0.13U W=2.94U AS=0.7056P AD=0.7056P PS=6.37U PD=6.37U 
Mtr_02059 837 838 909 909 sg13_lv_pmos L=0.13U W=2.94U AS=0.7056P AD=0.7056P PS=6.37U PD=6.37U 
Mtr_02058 909 838 837 909 sg13_lv_pmos L=0.13U W=2.94U AS=0.7056P AD=0.7056P PS=6.37U PD=6.37U 
Mtr_02057 909 838 837 909 sg13_lv_pmos L=0.13U W=2.94U AS=0.7056P AD=0.7056P PS=6.37U PD=6.37U 
Mtr_02056 837 838 909 909 sg13_lv_pmos L=0.13U W=2.94U AS=0.7056P AD=0.7056P PS=6.37U PD=6.37U 
Mtr_02055 909 854 855 909 sg13_lv_pmos L=0.13U W=2.94U AS=0.7056P AD=0.7056P PS=6.37U PD=6.37U 
Mtr_02054 853 855 909 909 sg13_lv_pmos L=0.13U W=2.94U AS=0.7056P AD=0.7056P PS=6.37U PD=6.37U 
Mtr_02053 909 855 853 909 sg13_lv_pmos L=0.13U W=2.94U AS=0.7056P AD=0.7056P PS=6.37U PD=6.37U 
Mtr_02052 909 855 853 909 sg13_lv_pmos L=0.13U W=2.94U AS=0.7056P AD=0.7056P PS=6.37U PD=6.37U 
Mtr_02051 853 855 909 909 sg13_lv_pmos L=0.13U W=2.94U AS=0.7056P AD=0.7056P PS=6.37U PD=6.37U 
Mtr_02050 909 854 852 909 sg13_lv_pmos L=0.13U W=2.94U AS=0.7056P AD=0.7056P PS=6.37U PD=6.37U 
Mtr_02049 851 852 909 909 sg13_lv_pmos L=0.13U W=2.94U AS=0.7056P AD=0.7056P PS=6.37U PD=6.37U 
Mtr_02048 909 852 851 909 sg13_lv_pmos L=0.13U W=2.94U AS=0.7056P AD=0.7056P PS=6.37U PD=6.37U 
Mtr_02047 909 852 851 909 sg13_lv_pmos L=0.13U W=2.94U AS=0.7056P AD=0.7056P PS=6.37U PD=6.37U 
Mtr_02046 851 852 909 909 sg13_lv_pmos L=0.13U W=2.94U AS=0.7056P AD=0.7056P PS=6.37U PD=6.37U 
Mtr_02045 909 854 828 909 sg13_lv_pmos L=0.13U W=2.94U AS=0.7056P AD=0.7056P PS=6.37U PD=6.37U 
Mtr_02044 827 828 909 909 sg13_lv_pmos L=0.13U W=2.94U AS=0.7056P AD=0.7056P PS=6.37U PD=6.37U 
Mtr_02043 909 828 827 909 sg13_lv_pmos L=0.13U W=2.94U AS=0.7056P AD=0.7056P PS=6.37U PD=6.37U 
Mtr_02042 909 828 827 909 sg13_lv_pmos L=0.13U W=2.94U AS=0.7056P AD=0.7056P PS=6.37U PD=6.37U 
Mtr_02041 827 828 909 909 sg13_lv_pmos L=0.13U W=2.94U AS=0.7056P AD=0.7056P PS=6.37U PD=6.37U 
Mtr_02040 909 854 850 909 sg13_lv_pmos L=0.13U W=2.94U AS=0.7056P AD=0.7056P PS=6.37U PD=6.37U 
Mtr_02039 849 850 909 909 sg13_lv_pmos L=0.13U W=2.94U AS=0.7056P AD=0.7056P PS=6.37U PD=6.37U 
Mtr_02038 909 850 849 909 sg13_lv_pmos L=0.13U W=2.94U AS=0.7056P AD=0.7056P PS=6.37U PD=6.37U 
Mtr_02037 909 850 849 909 sg13_lv_pmos L=0.13U W=2.94U AS=0.7056P AD=0.7056P PS=6.37U PD=6.37U 
Mtr_02036 849 850 909 909 sg13_lv_pmos L=0.13U W=2.94U AS=0.7056P AD=0.7056P PS=6.37U PD=6.37U 
Mtr_02035 909 854 848 909 sg13_lv_pmos L=0.13U W=2.94U AS=0.7056P AD=0.7056P PS=6.37U PD=6.37U 
Mtr_02034 847 848 909 909 sg13_lv_pmos L=0.13U W=2.94U AS=0.7056P AD=0.7056P PS=6.37U PD=6.37U 
Mtr_02033 909 848 847 909 sg13_lv_pmos L=0.13U W=2.94U AS=0.7056P AD=0.7056P PS=6.37U PD=6.37U 
Mtr_02032 909 848 847 909 sg13_lv_pmos L=0.13U W=2.94U AS=0.7056P AD=0.7056P PS=6.37U PD=6.37U 
Mtr_02031 847 848 909 909 sg13_lv_pmos L=0.13U W=2.94U AS=0.7056P AD=0.7056P PS=6.37U PD=6.37U 
Mtr_02030 909 854 826 909 sg13_lv_pmos L=0.13U W=2.94U AS=0.7056P AD=0.7056P PS=6.37U PD=6.37U 
Mtr_02029 825 826 909 909 sg13_lv_pmos L=0.13U W=2.94U AS=0.7056P AD=0.7056P PS=6.37U PD=6.37U 
Mtr_02028 909 826 825 909 sg13_lv_pmos L=0.13U W=2.94U AS=0.7056P AD=0.7056P PS=6.37U PD=6.37U 
Mtr_02027 909 826 825 909 sg13_lv_pmos L=0.13U W=2.94U AS=0.7056P AD=0.7056P PS=6.37U PD=6.37U 
Mtr_02026 825 826 909 909 sg13_lv_pmos L=0.13U W=2.94U AS=0.7056P AD=0.7056P PS=6.37U PD=6.37U 
Mtr_02025 909 854 619 909 sg13_lv_pmos L=0.13U W=2.94U AS=0.7056P AD=0.7056P PS=6.37U PD=6.37U 
Mtr_02024 618 619 909 909 sg13_lv_pmos L=0.13U W=2.94U AS=0.7056P AD=0.7056P PS=6.37U PD=6.37U 
Mtr_02023 909 619 618 909 sg13_lv_pmos L=0.13U W=2.94U AS=0.7056P AD=0.7056P PS=6.37U PD=6.37U 
Mtr_02022 909 619 618 909 sg13_lv_pmos L=0.13U W=2.94U AS=0.7056P AD=0.7056P PS=6.37U PD=6.37U 
Mtr_02021 618 619 909 909 sg13_lv_pmos L=0.13U W=2.94U AS=0.7056P AD=0.7056P PS=6.37U PD=6.37U 
Mtr_02020 909 854 617 909 sg13_lv_pmos L=0.13U W=2.94U AS=0.7056P AD=0.7056P PS=6.37U PD=6.37U 
Mtr_02019 616 617 909 909 sg13_lv_pmos L=0.13U W=2.94U AS=0.7056P AD=0.7056P PS=6.37U PD=6.37U 
Mtr_02018 909 617 616 909 sg13_lv_pmos L=0.13U W=2.94U AS=0.7056P AD=0.7056P PS=6.37U PD=6.37U 
Mtr_02017 909 617 616 909 sg13_lv_pmos L=0.13U W=2.94U AS=0.7056P AD=0.7056P PS=6.37U PD=6.37U 
Mtr_02016 616 617 909 909 sg13_lv_pmos L=0.13U W=2.94U AS=0.7056P AD=0.7056P PS=6.37U PD=6.37U 
Mtr_02015 45 86 909 909 sg13_lv_pmos L=0.13U W=2.19U AS=0.5256P AD=0.5256P PS=4.87U PD=4.87U 
Mtr_02014 909 899 45 909 sg13_lv_pmos L=0.13U W=2.19U AS=0.5256P AD=0.5256P PS=4.87U PD=4.87U 
Mtr_02013 44 45 909 909 sg13_lv_pmos L=0.13U W=2.94U AS=0.7056P AD=0.7056P PS=6.37U PD=6.37U 
Mtr_02012 449 493 909 909 sg13_lv_pmos L=0.13U W=2.19U AS=0.5256P AD=0.5256P PS=4.87U PD=4.87U 
Mtr_02011 449 479 909 909 sg13_lv_pmos L=0.13U W=2.19U AS=0.5256P AD=0.5256P PS=4.87U PD=4.87U 
Mtr_02010 909 477 449 909 sg13_lv_pmos L=0.13U W=2.19U AS=0.5256P AD=0.5256P PS=4.87U PD=4.87U 
Mtr_02009 909 694 305 909 sg13_lv_pmos L=0.13U W=2.94U AS=0.7056P AD=0.7056P PS=6.37U PD=6.37U 
Mtr_02008 430 305 909 909 sg13_lv_pmos L=0.13U W=2.94U AS=0.7056P AD=0.7056P PS=6.37U PD=6.37U 
Mtr_02007 909 305 430 909 sg13_lv_pmos L=0.13U W=2.94U AS=0.7056P AD=0.7056P PS=6.37U PD=6.37U 
Mtr_02006 909 305 430 909 sg13_lv_pmos L=0.13U W=2.94U AS=0.7056P AD=0.7056P PS=6.37U PD=6.37U 
Mtr_02005 430 305 909 909 sg13_lv_pmos L=0.13U W=2.94U AS=0.7056P AD=0.7056P PS=6.37U PD=6.37U 
Mtr_02004 909 694 292 909 sg13_lv_pmos L=0.13U W=2.94U AS=0.7056P AD=0.7056P PS=6.37U PD=6.37U 
Mtr_02003 413 292 909 909 sg13_lv_pmos L=0.13U W=2.94U AS=0.7056P AD=0.7056P PS=6.37U PD=6.37U 
Mtr_02002 909 292 413 909 sg13_lv_pmos L=0.13U W=2.94U AS=0.7056P AD=0.7056P PS=6.37U PD=6.37U 
Mtr_02001 909 292 413 909 sg13_lv_pmos L=0.13U W=2.94U AS=0.7056P AD=0.7056P PS=6.37U PD=6.37U 
Mtr_02000 413 292 909 909 sg13_lv_pmos L=0.13U W=2.94U AS=0.7056P AD=0.7056P PS=6.37U PD=6.37U 
Mtr_01999 366 795 909 909 sg13_lv_pmos L=0.13U W=2.94U AS=0.7056P AD=0.7056P PS=6.37U PD=6.37U 
Mtr_01998 909 795 384 909 sg13_lv_pmos L=0.13U W=1.52U AS=0.3648P AD=0.3648P PS=3.52U PD=3.52U 
Mtr_01997 381 946 909 909 sg13_lv_pmos L=0.13U W=1.52U AS=0.3648P AD=0.3648P PS=3.52U PD=3.52U 
Mtr_01996 909 381 366 909 sg13_lv_pmos L=0.13U W=2.94U AS=0.7056P AD=0.7056P PS=6.37U PD=6.37U 
Mtr_01995 366 384 382 909 sg13_lv_pmos L=0.13U W=2.94U AS=0.7056P AD=0.7056P PS=6.37U PD=6.37U 
Mtr_01994 382 946 366 909 sg13_lv_pmos L=0.13U W=2.94U AS=0.7056P AD=0.7056P PS=6.37U PD=6.37U 
Mtr_01993 379 382 909 909 sg13_lv_pmos L=0.13U W=2.94U AS=0.7056P AD=0.7056P PS=6.37U PD=6.37U 
Mtr_01992 909 382 379 909 sg13_lv_pmos L=0.13U W=2.94U AS=0.7056P AD=0.7056P PS=6.37U PD=6.37U 
Mtr_01991 213 169 909 909 sg13_lv_pmos L=0.13U W=2.94U AS=0.7056P AD=0.7056P PS=6.37U PD=6.37U 
Mtr_01990 157 325 909 909 sg13_lv_pmos L=0.13U W=1.52U AS=0.3648P AD=0.3648P PS=3.52U PD=3.52U 
Mtr_01989 909 777 170 909 sg13_lv_pmos L=0.13U W=1.52U AS=0.3648P AD=0.3648P PS=3.52U PD=3.52U 
Mtr_01988 909 207 156 909 sg13_lv_pmos L=0.13U W=1.52U AS=0.3648P AD=0.3648P PS=3.52U PD=3.52U 
Mtr_01987 156 170 169 909 sg13_lv_pmos L=0.13U W=1.52U AS=0.3648P AD=0.3648P PS=3.52U PD=3.52U 
Mtr_01986 169 777 157 909 sg13_lv_pmos L=0.13U W=1.52U AS=0.3648P AD=0.3648P PS=3.52U PD=3.52U 
Mtr_01985 502 711 909 909 sg13_lv_pmos L=0.13U W=2.19U AS=0.5256P AD=0.5256P PS=4.87U PD=4.87U 
Mtr_01984 502 673 909 909 sg13_lv_pmos L=0.13U W=2.19U AS=0.5256P AD=0.5256P PS=4.87U PD=4.87U 
Mtr_01983 909 736 502 909 sg13_lv_pmos L=0.13U W=2.19U AS=0.5256P AD=0.5256P PS=4.87U PD=4.87U 
Mtr_01982 909 674 502 909 sg13_lv_pmos L=0.13U W=2.19U AS=0.5256P AD=0.5256P PS=4.87U PD=4.87U 
Mtr_01981 177 183 161 909 sg13_lv_pmos L=0.13U W=1.44U AS=0.3456P AD=0.3456P PS=3.37U PD=3.37U 
Mtr_01980 160 184 177 909 sg13_lv_pmos L=0.13U W=1.44U AS=0.3456P AD=0.3456P PS=3.37U PD=3.37U 
Mtr_01979 909 176 160 909 sg13_lv_pmos L=0.13U W=1.44U AS=0.3456P AD=0.3456P PS=3.37U PD=3.37U 
Mtr_01978 176 177 909 909 sg13_lv_pmos L=0.13U W=1.44U AS=0.3456P AD=0.3456P PS=3.37U PD=3.37U 
Mtr_01977 174 184 176 909 sg13_lv_pmos L=0.13U W=1.44U AS=0.3456P AD=0.3456P PS=3.37U PD=3.37U 
Mtr_01976 909 216 184 909 sg13_lv_pmos L=0.13U W=2.12U AS=0.5088P AD=0.5088P PS=4.72U PD=4.72U 
Mtr_01975 183 184 909 909 sg13_lv_pmos L=0.13U W=2.12U AS=0.5088P AD=0.5088P PS=4.72U PD=4.72U 
Mtr_01974 909 221 182 909 sg13_lv_pmos L=0.13U W=1.44U AS=0.3456P AD=0.3456P PS=3.37U PD=3.37U 
Mtr_01973 161 182 909 909 sg13_lv_pmos L=0.13U W=1.44U AS=0.3456P AD=0.3456P PS=3.37U PD=3.37U 
Mtr_01972 159 158 174 909 sg13_lv_pmos L=0.13U W=1.44U AS=0.3456P AD=0.3456P PS=3.37U PD=3.37U 
Mtr_01971 909 222 159 909 sg13_lv_pmos L=0.13U W=1.44U AS=0.3456P AD=0.3456P PS=3.37U PD=3.37U 
Mtr_01970 222 174 909 909 sg13_lv_pmos L=0.13U W=2.94U AS=0.7056P AD=0.7056P PS=6.37U PD=6.37U 
Mtr_01969 909 174 222 909 sg13_lv_pmos L=0.13U W=2.94U AS=0.7056P AD=0.7056P PS=6.37U PD=6.37U 
Mtr_01968 734 735 716 909 sg13_lv_pmos L=0.13U W=1.44U AS=0.3456P AD=0.3456P PS=3.37U PD=3.37U 
Mtr_01967 717 756 734 909 sg13_lv_pmos L=0.13U W=1.44U AS=0.3456P AD=0.3456P PS=3.37U PD=3.37U 
Mtr_01966 909 731 717 909 sg13_lv_pmos L=0.13U W=1.44U AS=0.3456P AD=0.3456P PS=3.37U PD=3.37U 
Mtr_01965 731 734 909 909 sg13_lv_pmos L=0.13U W=1.44U AS=0.3456P AD=0.3456P PS=3.37U PD=3.37U 
Mtr_01964 753 756 731 909 sg13_lv_pmos L=0.13U W=1.44U AS=0.3456P AD=0.3456P PS=3.37U PD=3.37U 
Mtr_01963 909 849 756 909 sg13_lv_pmos L=0.13U W=2.12U AS=0.5088P AD=0.5088P PS=4.72U PD=4.72U 
Mtr_01962 735 756 909 909 sg13_lv_pmos L=0.13U W=2.12U AS=0.5088P AD=0.5088P PS=4.72U PD=4.72U 
Mtr_01961 909 733 758 909 sg13_lv_pmos L=0.13U W=1.44U AS=0.3456P AD=0.3456P PS=3.37U PD=3.37U 
Mtr_01960 716 758 909 909 sg13_lv_pmos L=0.13U W=1.44U AS=0.3456P AD=0.3456P PS=3.37U PD=3.37U 
Mtr_01959 714 721 753 909 sg13_lv_pmos L=0.13U W=1.44U AS=0.3456P AD=0.3456P PS=3.37U PD=3.37U 
Mtr_01958 909 943 714 909 sg13_lv_pmos L=0.13U W=1.44U AS=0.3456P AD=0.3456P PS=3.37U PD=3.37U 
Mtr_01957 943 753 909 909 sg13_lv_pmos L=0.13U W=2.94U AS=0.7056P AD=0.7056P PS=6.37U PD=6.37U 
Mtr_01956 909 753 943 909 sg13_lv_pmos L=0.13U W=2.94U AS=0.7056P AD=0.7056P PS=6.37U PD=6.37U 
Mtr_01955 471 777 909 909 sg13_lv_pmos L=0.13U W=2.19U AS=0.5256P AD=0.5256P PS=4.87U PD=4.87U 
Mtr_01954 909 795 471 909 sg13_lv_pmos L=0.13U W=2.19U AS=0.5256P AD=0.5256P PS=4.87U PD=4.87U 
Mtr_01953 605 631 604 909 sg13_lv_pmos L=0.13U W=2.34U AS=0.5616P AD=0.5616P PS=5.17U PD=5.17U 
Mtr_01952 604 603 909 909 sg13_lv_pmos L=0.13U W=2.34U AS=0.5616P AD=0.5616P PS=5.17U PD=5.17U 
Mtr_01951 909 647 605 909 sg13_lv_pmos L=0.13U W=2.34U AS=0.5616P AD=0.5616P PS=5.17U PD=5.17U 
Mtr_01950 677 605 909 909 sg13_lv_pmos L=0.13U W=2.34U AS=0.5616P AD=0.5616P PS=5.17U PD=5.17U 
Mtr_01949 221 223 909 909 sg13_lv_pmos L=0.13U W=2.94U AS=0.7056P AD=0.7056P PS=6.37U PD=6.37U 
Mtr_01948 225 248 909 909 sg13_lv_pmos L=0.13U W=1.52U AS=0.3648P AD=0.3648P PS=3.52U PD=3.52U 
Mtr_01947 909 777 226 909 sg13_lv_pmos L=0.13U W=1.52U AS=0.3648P AD=0.3648P PS=3.52U PD=3.52U 
Mtr_01946 909 222 224 909 sg13_lv_pmos L=0.13U W=1.52U AS=0.3648P AD=0.3648P PS=3.52U PD=3.52U 
Mtr_01945 224 226 223 909 sg13_lv_pmos L=0.13U W=1.52U AS=0.3648P AD=0.3648P PS=3.52U PD=3.52U 
Mtr_01944 223 777 225 909 sg13_lv_pmos L=0.13U W=1.52U AS=0.3648P AD=0.3648P PS=3.52U PD=3.52U 
Mtr_01943 909 379 333 909 sg13_lv_pmos L=0.13U W=1.52U AS=0.3648P AD=0.3648P PS=3.52U PD=3.52U 
Mtr_01942 318 379 909 909 sg13_lv_pmos L=0.13U W=2.94U AS=0.7056P AD=0.7056P PS=6.37U PD=6.37U 
Mtr_01941 334 329 318 909 sg13_lv_pmos L=0.13U W=2.94U AS=0.7056P AD=0.7056P PS=6.37U PD=6.37U 
Mtr_01940 318 333 334 909 sg13_lv_pmos L=0.13U W=2.94U AS=0.7056P AD=0.7056P PS=6.37U PD=6.37U 
Mtr_01939 909 331 318 909 sg13_lv_pmos L=0.13U W=2.94U AS=0.7056P AD=0.7056P PS=6.37U PD=6.37U 
Mtr_01938 331 329 909 909 sg13_lv_pmos L=0.13U W=1.52U AS=0.3648P AD=0.3648P PS=3.52U PD=3.52U 
Mtr_01937 942 943 909 909 sg13_lv_pmos L=0.13U W=2.19U AS=0.5256P AD=0.5256P PS=4.87U PD=4.87U 
Mtr_01936 909 945 942 909 sg13_lv_pmos L=0.13U W=2.19U AS=0.5256P AD=0.5256P PS=4.87U PD=4.87U 
Mtr_01935 909 515 512 909 sg13_lv_pmos L=0.13U W=1.52U AS=0.3648P AD=0.3648P PS=3.52U PD=3.52U 
Mtr_01934 499 515 909 909 sg13_lv_pmos L=0.13U W=2.94U AS=0.7056P AD=0.7056P PS=6.37U PD=6.37U 
Mtr_01933 556 513 499 909 sg13_lv_pmos L=0.13U W=2.94U AS=0.7056P AD=0.7056P PS=6.37U PD=6.37U 
Mtr_01932 499 512 556 909 sg13_lv_pmos L=0.13U W=2.94U AS=0.7056P AD=0.7056P PS=6.37U PD=6.37U 
Mtr_01931 909 511 499 909 sg13_lv_pmos L=0.13U W=2.94U AS=0.7056P AD=0.7056P PS=6.37U PD=6.37U 
Mtr_01930 511 513 909 909 sg13_lv_pmos L=0.13U W=1.52U AS=0.3648P AD=0.3648P PS=3.52U PD=3.52U 
Mtr_01929 242 245 231 909 sg13_lv_pmos L=0.13U W=1.44U AS=0.3456P AD=0.3456P PS=3.37U PD=3.37U 
Mtr_01928 230 247 242 909 sg13_lv_pmos L=0.13U W=1.44U AS=0.3456P AD=0.3456P PS=3.37U PD=3.37U 
Mtr_01927 909 238 230 909 sg13_lv_pmos L=0.13U W=1.44U AS=0.3456P AD=0.3456P PS=3.37U PD=3.37U 
Mtr_01926 238 242 909 909 sg13_lv_pmos L=0.13U W=1.44U AS=0.3456P AD=0.3456P PS=3.37U PD=3.37U 
Mtr_01925 236 247 238 909 sg13_lv_pmos L=0.13U W=1.44U AS=0.3456P AD=0.3456P PS=3.37U PD=3.37U 
Mtr_01924 909 244 247 909 sg13_lv_pmos L=0.13U W=2.12U AS=0.5088P AD=0.5088P PS=4.72U PD=4.72U 
Mtr_01923 245 247 909 909 sg13_lv_pmos L=0.13U W=2.12U AS=0.5088P AD=0.5088P PS=4.72U PD=4.72U 
Mtr_01922 909 266 246 909 sg13_lv_pmos L=0.13U W=1.44U AS=0.3456P AD=0.3456P PS=3.37U PD=3.37U 
Mtr_01921 231 246 909 909 sg13_lv_pmos L=0.13U W=1.44U AS=0.3456P AD=0.3456P PS=3.37U PD=3.37U 
Mtr_01920 229 234 236 909 sg13_lv_pmos L=0.13U W=1.44U AS=0.3456P AD=0.3456P PS=3.37U PD=3.37U 
Mtr_01919 909 235 229 909 sg13_lv_pmos L=0.13U W=1.44U AS=0.3456P AD=0.3456P PS=3.37U PD=3.37U 
Mtr_01918 235 236 909 909 sg13_lv_pmos L=0.13U W=2.94U AS=0.7056P AD=0.7056P PS=6.37U PD=6.37U 
Mtr_01917 909 236 235 909 sg13_lv_pmos L=0.13U W=2.94U AS=0.7056P AD=0.7056P PS=6.37U PD=6.37U 
Mtr_01916 685 686 909 909 sg13_lv_pmos L=0.13U W=2.19U AS=0.5256P AD=0.5256P PS=4.87U PD=4.87U 
Mtr_01915 909 711 685 909 sg13_lv_pmos L=0.13U W=2.19U AS=0.5256P AD=0.5256P PS=4.87U PD=4.87U 
Mtr_01914 119 118 909 909 sg13_lv_pmos L=0.13U W=2.19U AS=0.5256P AD=0.5256P PS=4.87U PD=4.87U 
Mtr_01913 909 899 119 909 sg13_lv_pmos L=0.13U W=2.19U AS=0.5256P AD=0.5256P PS=4.87U PD=4.87U 
Mtr_01912 117 119 909 909 sg13_lv_pmos L=0.13U W=2.94U AS=0.7056P AD=0.7056P PS=6.37U PD=6.37U 
Mtr_01911 252 235 909 909 sg13_lv_pmos L=0.13U W=2.19U AS=0.5256P AD=0.5256P PS=4.87U PD=4.87U 
Mtr_01910 909 171 252 909 sg13_lv_pmos L=0.13U W=2.19U AS=0.5256P AD=0.5256P PS=4.87U PD=4.87U 
Mtr_01909 648 736 909 909 sg13_lv_pmos L=0.13U W=1.52U AS=0.3648P AD=0.3648P PS=3.52U PD=3.52U 
Mtr_01908 909 673 648 909 sg13_lv_pmos L=0.13U W=1.52U AS=0.3648P AD=0.3648P PS=3.52U PD=3.52U 
Mtr_01907 650 652 909 909 sg13_lv_pmos L=0.13U W=2.94U AS=0.7056P AD=0.7056P PS=6.37U PD=6.37U 
Mtr_01906 652 674 648 909 sg13_lv_pmos L=0.13U W=1.52U AS=0.3648P AD=0.3648P PS=3.52U PD=3.52U 
Mtr_01905 648 675 652 909 sg13_lv_pmos L=0.13U W=1.52U AS=0.3648P AD=0.3648P PS=3.52U PD=3.52U 
Mtr_01904 205 777 909 909 sg13_lv_pmos L=0.13U W=2.19U AS=0.5256P AD=0.5256P PS=4.87U PD=4.87U 
Mtr_01903 909 235 205 909 sg13_lv_pmos L=0.13U W=2.19U AS=0.5256P AD=0.5256P PS=4.87U PD=4.87U 
Mtr_01902 262 205 909 909 sg13_lv_pmos L=0.13U W=2.94U AS=0.7056P AD=0.7056P PS=6.37U PD=6.37U 
Mtr_01901 447 445 443 909 sg13_lv_pmos L=0.13U W=2.34U AS=0.5616P AD=0.5616P PS=5.17U PD=5.17U 
Mtr_01900 443 463 909 909 sg13_lv_pmos L=0.13U W=2.34U AS=0.5616P AD=0.5616P PS=5.17U PD=5.17U 
Mtr_01899 909 502 447 909 sg13_lv_pmos L=0.13U W=2.34U AS=0.5616P AD=0.5616P PS=5.17U PD=5.17U 
Mtr_01898 535 447 909 909 sg13_lv_pmos L=0.13U W=2.34U AS=0.5616P AD=0.5616P PS=5.17U PD=5.17U 
Mtr_01897 316 722 909 909 sg13_lv_pmos L=0.13U W=2.19U AS=0.5256P AD=0.5256P PS=4.87U PD=4.87U 
Mtr_01896 909 674 316 909 sg13_lv_pmos L=0.13U W=2.19U AS=0.5256P AD=0.5256P PS=4.87U PD=4.87U 
Mtr_01895 315 316 909 909 sg13_lv_pmos L=0.13U W=2.94U AS=0.7056P AD=0.7056P PS=6.37U PD=6.37U 
Mtr_01894 438 506 909 909 sg13_lv_pmos L=0.13U W=2.94U AS=0.7056P AD=0.7056P PS=6.37U PD=6.37U 
Mtr_01893 439 536 438 909 sg13_lv_pmos L=0.13U W=2.94U AS=0.7056P AD=0.7056P PS=6.37U PD=6.37U 
Mtr_01892 909 467 439 909 sg13_lv_pmos L=0.13U W=2.94U AS=0.7056P AD=0.7056P PS=6.37U PD=6.37U 
Mtr_01891 389 374 909 909 sg13_lv_pmos L=0.13U W=2.19U AS=0.5256P AD=0.5256P PS=4.87U PD=4.87U 
Mtr_01890 909 372 389 909 sg13_lv_pmos L=0.13U W=2.19U AS=0.5256P AD=0.5256P PS=4.87U PD=4.87U 
Mtr_01889 890 888 891 909 sg13_lv_pmos L=0.13U W=2.34U AS=0.5616P AD=0.5616P PS=5.17U PD=5.17U 
Mtr_01888 891 889 909 909 sg13_lv_pmos L=0.13U W=2.34U AS=0.5616P AD=0.5616P PS=5.17U PD=5.17U 
Mtr_01887 909 899 890 909 sg13_lv_pmos L=0.13U W=2.34U AS=0.5616P AD=0.5616P PS=5.17U PD=5.17U 
Mtr_01886 916 890 909 909 sg13_lv_pmos L=0.13U W=2.34U AS=0.5616P AD=0.5616P PS=5.17U PD=5.17U 
Mtr_01885 927 925 909 909 sg13_lv_pmos L=0.13U W=2.19U AS=0.5256P AD=0.5256P PS=4.87U PD=4.87U 
Mtr_01884 909 928 927 909 sg13_lv_pmos L=0.13U W=2.19U AS=0.5256P AD=0.5256P PS=4.87U PD=4.87U 
Mtr_01883 924 927 909 909 sg13_lv_pmos L=0.13U W=2.94U AS=0.7056P AD=0.7056P PS=6.37U PD=6.37U 
Mtr_01882 690 686 909 909 sg13_lv_pmos L=0.13U W=2.19U AS=0.5256P AD=0.5256P PS=4.87U PD=4.87U 
Mtr_01881 690 710 909 909 sg13_lv_pmos L=0.13U W=2.19U AS=0.5256P AD=0.5256P PS=4.87U PD=4.87U 