.model sky130_fd_pr__nfet_01v8__model.0 nmos
* Model Flag Parameters
+ lmin = 2.0e-05 lmax = 0.0001 wmin = 7.0e-06 wmax = 0.0001
+ level = 54.0
+ version = 4.5
+ binunit = 2.0
+ mobmod = 0.0
+ capmod = 2.0
+ igcmod = 0.0
+ igbmod = 0.0
+ geomod = 0.0
+ diomod = 1.0
+ rdsmod = 0.0
+ rbodymod = 1.0
+ rgatemod = 0.0
+ permod = 1.0
+ acnqsmod = 0.0
+ trnqsmod = 0.0
+ fnoimod = 1.0
+ tnoimod = 1.0
+ tempmod = 0.0
* Process Parameters
*(mismatch parameter sky130_fd_pr__nfet_01v8__toxe_slope_spectre)
+ toxe = 3.932304e-09
+ toxm = 4.148e-9
+ dtox = 0.0
+ epsrox = 3.9
+ xj = 1.5e-7
+ ngate = 1.0e+23
+ ndep = 1.7e+17
+ nsd = 1.0e+20
+ rsh = 1.0
+ rshg = 0.1
* Basic Model Parameters
+ wint = -1.0316e-8
+ lint = 2.40595e-8
*(mismatch parameter sky130_fd_pr__nfet_01v8__vth0_slope_spectre)
+ vth0 = 0.521494355
+ k1 = 0.54086565
+ k2 = -0.026725491
+ k3 = 2.0
+ k3b = 0.54
+ w0 = 0.0
+ dvt0 = 0.0
+ dvt1 = 0.53
+ dvt2 = -0.032
+ dvt0w = -3.58
+ dvt1w = 1670600.0
+ dvt2w = 0.068
+ dsub = 0.56
+ minv = 0.0
+ voffl = 5.8197729e-9
+ lpe0 = 1.0325e-7
+ lpeb = -7.082e-8
+ vbm = -3.0
+ dvtp0 = 0.0
+ dvtp1 = 0.0
+ phin = 0.0
+ cdsc = 0.0
+ cdscb = 0.0
+ cdscd = 0.0054
+ cit = 0.0
*(mismatch parameter sky130_fd_pr__nfet_01v8__voff_slope_spectre)
+ voff = -0.1052686
+ nfactor = 2.5784
+ eta0 = 0.08
+ etab = -0.07
+ u0 = 0.0319905
+ ua = -7.5751847e-10
+ ub = 1.734885e-18
+ uc = 4.9242e-11
+ ud = 0.0
+ up = 0.0
+ lp = 1.0
+ eu = 1.67
+ vtl = 0.0
+ xn = 3.0
+ vsat = 80000.0
+ a0 = 1.314494
+ ags = 0.423558
+ a1 = 0.0
+ a2 = 0.42385546
+ b0 = 0.0
+ b1 = 2.1073424e-24
+ keta = -0.0087946
+ dwg = 0.0
+ dwb = 0.0
+ pclm = 0.026316
+ pdiblc1 = 0.39
+ pdiblc2 = 0.0030734587
+ pdiblcb = -0.025
+ drout = 0.56
+ pscbe1 = 754674160.0
+ pscbe2 = 1.0e-12
+ pvag = 0.0
+ delta = 0.01
+ fprout = 0.0
+ pdits = 0.0
+ pditsl = 0.0
+ pditsd = 0.0
+ lambda = 0.0
+ lc = 5.0e-9
* Parameters FOR Asymmetric AND Bias-Dependent RDS Model
+ rdsw = 65.968
+ rsw = 0.0
+ rdw = 0.0
+ rdswmin = 0.0
+ rdwmin = 0.0
+ rswmin = 0.0
+ prwb = 0.0
+ prwg = 0.021507
+ wr = 1.0
* Impact Ionization Current Model Parameters
+ alpha0 = 3.0e-8
+ alpha1 = 0.85
+ beta0 = 13.86
* Gidl Induced Drain Leakage Model Parameters
+ agidl = 0.0
+ bgidl = 2300000000.0
+ cgidl = 0.5
+ egidl = 0.8
* Gate Dielectric Tunneling Current Model Parameters
+ toxref = 4.148e-9
+ dlcig = 0.0
+ aigbacc = 1.0
+ bigbacc = 0.0
+ cigbacc = 0.0
+ nigbacc = 0.0
+ aigbinv = 0.35
+ bigbinv = 0.03
+ cigbinv = 0.006
+ eigbinv = 1.1
+ nigbinv = 0.0
+ aigc = 0.43
+ bigc = 0.054
+ cigc = 0.075
+ aigsd = 0.43
+ bigsd = 0.054
+ cigsd = 0.075
+ nigc = 0.0
+ poxedge = 1.0
+ pigcd = 1.0
+ ntox = 1.0
+ vfbsdoff = 0.0
* Charge AND Capacitance Model Parameters
+ dlc = 2.3267e-8
+ dwc = -3.2175e-8
+ xpart = 0.0
+ cgso = 2.4083264e-10
+ cgdo = 2.4083264e-10
+ cgbo = 1.0e-13
+ cgdl = 0.0
+ cgsl = 0.0
+ clc = 1.0e-7
+ cle = 0.6
+ cf = 1.4067e-12
+ ckappas = 0.6
+ vfbcv = -1.0
+ acde = 0.4
+ moin = 6.9
+ noff = 3.4037
+ voffcv = -0.17287
* High-Speed/RF Model Parameters
+ xrcrg1 = 12.0
+ xrcrg2 = 1.0
+ rbpb = 50.0
+ rbpd = 50.0
+ rbps = 50.0
+ rbdb = 50.0
+ rbsb = 50.0
+ gbmin = 1.0e-12
* Flicker AND Thermal Noise Model Parameters
+ ef = 0.84
+ noia = 2.5e+42
+ noib = 0.0
+ noic = 0.0
+ em = 41000000.0
+ ntnoi = 1.0
+ lintnoi = -1.0e-7
+ af = 1.0
+ kf = 0.0
+ tnoia = 15000000.0
+ tnoib = 9900000.0
+ rnoia = 0.94
+ rnoib = 0.26
* Layout-Dependent Parasitics Model Parameters
+ xl = 0.0
+ xw = 0.0
+ dmcg = 0.0
+ dmdg = 0.0
+ dmcgt = 0.0
+ xgw = 0.0
+ xgl = 0.0
+ ngcon = 1.0
* Asymmetric Source/Drain Junction Diode Model Parameters
+ jss = 0.00275
+ jsws = 6.0e-10
+ ijthsfwd = 0.1
+ ijthsrev = 0.1
+ bvs = 11.7
+ xjbvs = 1.0
+ pbs = 0.729
+ cjs = 0.00104159201
+ mjs = 0.44
+ pbsws = 0.2
+ cjsws = 2.856175336e-11
+ mjsws = 0.0009
+ pbswgs = 0.95578
+ cjswgs = 1.852257592e-10
+ mjswgs = 0.8
* Temperature Dependence Parameters
+ tnom = 30.0
+ kt1 = -0.31303
+ kt2 = -0.045313337
+ at = 140000.0
+ ute = -1.8134
+ ua1 = 3.7602e-10
+ ub1 = -6.3962e-19
+ uc1 = 1.5829713e-11
+ kt1l = 0.0
+ prt = 0.0
+ tvoff = 0.0
+ njs = 1.2928
+ tpb = 0.0012287
+ tcj = 0.000792
+ tpbsw = 0.0
+ tcjsw = 1.0e-5
+ tpbswg = 0.0
+ tcjswg = 0.0
+ xtis = 2.0
+ tvfbsdoff = 0.0
* DW AND DL Parameters
+ ll = 0.0
+ wl = 0.0
+ lln = 1.0
+ wln = 1.0
+ lw = 0.0
+ ww = 0.0
+ lwn = 1.0
+ wwn = 1.0
+ lwl = 0.0
+ wwl = 0.0
+ llc = 0.0
+ wlc = 0.0
+ lwc = 0.0
+ wwc = 0.0
+ lwlc = 0.0
+ wwlc = 0.0
* Stress Parameters
+ saref = 3.0e-6
+ sbref = 3.0e-6
+ kvth0 = 9.8e-9
+ lkvth0 = 0.0
+ wkvth0 = 2.0e-7
+ pkvth0 = 0.0
+ llodvth = 0.0
+ wlodvth = 1.0
+ wlod = 0.0
+ stk2 = 0.0
+ lodk2 = 1.0
+ lodeta0 = 1.0
+ ku0 = -2.7e-8
+ lku0 = 0.0
+ wku0 = 0.0
+ pku0 = 0.0
+ tku0 = 0.0
+ llodku0 = 0.0
+ wlodku0 = 1.0
+ kvsat = 0.2
+ steta0 = 0.0
* Well Proximity Effect Parameters
.model sky130_fd_pr__nfet_01v8__model.1 nmos
* Model Flag Parameters
+ lmin = 8.0e-06 lmax = 2.0e-05 wmin = 7.0e-06 wmax = 0.0001
+ level = 54.0
+ version = 4.5
+ binunit = 2.0
+ mobmod = 0.0
+ capmod = 2.0
+ igcmod = 0.0
+ igbmod = 0.0
+ geomod = 0.0
+ diomod = 1.0
+ rdsmod = 0.0
+ rbodymod = 1.0
+ rgatemod = 0.0
+ permod = 1.0
+ acnqsmod = 0.0
+ trnqsmod = 0.0
+ fnoimod = 1.0
+ tnoimod = 1.0
+ tempmod = 0.0
* Process Parameters
*(mismatch parameter sky130_fd_pr__nfet_01v8__toxe_slope_spectre)
+ toxe = 3.932304e-09
+ toxm = 4.148e-9
+ dtox = 0.0
+ epsrox = 3.9
+ xj = 1.5e-7
+ ngate = 1.0e+23
+ ndep = 1.7e+17
+ nsd = 1.0e+20
+ rsh = 1.0
+ rshg = 0.1
* Basic Model Parameters
+ wint = -1.0316e-8
+ lint = 2.40595e-8
*(mismatch parameter sky130_fd_pr__nfet_01v8__vth0_slope_spectre)
+ vth0 = 0.521494355
+ k1 = 0.54086565
+ k2 = -0.026725491
+ k3 = 2.0
+ k3b = 0.54
+ w0 = 0.0
+ dvt0 = 0.0
+ dvt1 = 0.53
+ dvt2 = -0.032
+ dvt0w = -3.58
+ dvt1w = 1670600.0
+ dvt2w = 0.068
+ dsub = 0.56
+ minv = 0.0
+ voffl = 5.8197729e-9
+ lpe0 = 1.0325e-7
+ lpeb = -7.082e-8
+ vbm = -3.0
+ dvtp0 = 0.0
+ dvtp1 = 0.0
+ phin = 0.0
+ cdsc = 0.0
+ cdscb = 0.0
+ cdscd = 0.0054
+ cit = 0.0
*(mismatch parameter sky130_fd_pr__nfet_01v8__voff_slope_spectre)
+ voff = -0.1052686
+ nfactor = 2.5784
+ eta0 = 0.08
+ etab = -0.07
+ u0 = 0.0319905
+ ua = -7.5751847e-10
+ ub = 1.734885e-18
+ uc = 4.9242e-11
+ ud = 0.0
+ up = 0.0
+ lp = 1.0
+ eu = 1.67
+ vtl = 0.0
+ xn = 3.0
+ vsat = 80000.0
+ a0 = 1.314494
+ ags = 0.423558
+ a1 = 0.0
+ a2 = 0.42385546
+ b0 = 0.0
+ b1 = 2.1073424e-24
+ keta = -0.0087946
+ dwg = 0.0
+ dwb = 0.0
+ pclm = 0.026316
+ pdiblc1 = 0.39
+ pdiblc2 = 0.0030734587
+ pdiblcb = -0.025
+ drout = 0.56
+ pscbe1 = 754674160.0
+ pscbe2 = 1.0e-12
+ pvag = 0.0
+ delta = 0.01
+ fprout = 0.0
+ pdits = 0.0
+ pditsl = 0.0
+ pditsd = 0.0
+ lambda = 0.0
+ lc = 5.0e-9
* Parameters FOR Asymmetric AND Bias-Dependent RDS Model
+ rdsw = 65.968
+ rsw = 0.0
+ rdw = 0.0
+ rdswmin = 0.0
+ rdwmin = 0.0
+ rswmin = 0.0
+ prwb = 0.0
+ prwg = 0.021507
+ wr = 1.0
* Impact Ionization Current Model Parameters
+ alpha0 = 3.0e-8
+ alpha1 = 0.85
+ beta0 = 13.86
* Gidl Induced Drain Leakage Model Parameters
+ agidl = 0.0
+ bgidl = 2300000000.0
+ cgidl = 0.5
+ egidl = 0.8
* Gate Dielectric Tunneling Current Model Parameters
+ toxref = 4.148e-9
+ dlcig = 0.0
+ aigbacc = 1.0
+ bigbacc = 0.0
+ cigbacc = 0.0
+ nigbacc = 0.0
+ aigbinv = 0.35
+ bigbinv = 0.03
+ cigbinv = 0.006
+ eigbinv = 1.1
+ nigbinv = 0.0
+ aigc = 0.43
+ bigc = 0.054
+ cigc = 0.075
+ aigsd = 0.43
+ bigsd = 0.054
+ cigsd = 0.075
+ nigc = 0.0
+ poxedge = 1.0
+ pigcd = 1.0
+ ntox = 1.0
+ vfbsdoff = 0.0
* Charge AND Capacitance Model Parameters
+ dlc = 2.3267e-8
+ dwc = -3.2175e-8
+ xpart = 0.0
+ cgso = 2.4083264e-10
+ cgdo = 2.4083264e-10
+ cgbo = 1.0e-13
+ cgdl = 0.0
+ cgsl = 0.0
+ clc = 1.0e-7
+ cle = 0.6
+ cf = 1.4067e-12
+ ckappas = 0.6
+ vfbcv = -1.0
+ acde = 0.4
+ moin = 6.9
+ noff = 3.4037
+ voffcv = -0.17287
* High-Speed/RF Model Parameters
+ xrcrg1 = 12.0
+ xrcrg2 = 1.0
+ rbpb = 50.0
+ rbpd = 50.0
+ rbps = 50.0
+ rbdb = 50.0
+ rbsb = 50.0
+ gbmin = 1.0e-12
* Flicker AND Thermal Noise Model Parameters
+ ef = 0.84
+ noia = 2.5e+42
+ noib = 0.0
+ noic = 0.0
+ em = 41000000.0
+ ntnoi = 1.0
+ lintnoi = -1.0e-7
+ af = 1.0
+ kf = 0.0
+ tnoia = 15000000.0
+ tnoib = 9900000.0
+ rnoia = 0.94
+ rnoib = 0.26
* Layout-Dependent Parasitics Model Parameters
+ xl = 0.0
+ xw = 0.0
+ dmcg = 0.0
+ dmdg = 0.0
+ dmcgt = 0.0
+ xgw = 0.0
+ xgl = 0.0
+ ngcon = 1.0
* Asymmetric Source/Drain Junction Diode Model Parameters
+ jss = 0.00275
+ jsws = 6.0e-10
+ ijthsfwd = 0.1
+ ijthsrev = 0.1
+ bvs = 11.7
+ xjbvs = 1.0
+ pbs = 0.729
+ cjs = 0.00104159201
+ mjs = 0.44
+ pbsws = 0.2
+ cjsws = 2.856175336e-11
+ mjsws = 0.0009
+ pbswgs = 0.95578
+ cjswgs = 1.852257592e-10
+ mjswgs = 0.8
* Temperature Dependence Parameters
+ tnom = 30.0
+ kt1 = -0.31303
+ kt2 = -0.045313337
+ at = 140000.0
+ ute = -1.8134
+ ua1 = 3.7602e-10
+ ub1 = -6.3962e-19
+ uc1 = 1.5829713e-11
+ kt1l = 0.0
+ prt = 0.0
+ tvoff = 0.0
+ njs = 1.2928
+ tpb = 0.0012287
+ tcj = 0.000792
+ tpbsw = 0.0
+ tcjsw = 1.0e-5
+ tpbswg = 0.0
+ tcjswg = 0.0
+ xtis = 2.0
+ tvfbsdoff = 0.0
* DW AND DL Parameters
+ ll = 0.0
+ wl = 0.0
+ lln = 1.0
+ wln = 1.0
+ lw = 0.0
+ ww = 0.0
+ lwn = 1.0
+ wwn = 1.0
+ lwl = 0.0
+ wwl = 0.0
+ llc = 0.0
+ wlc = 0.0
+ lwc = 0.0
+ wwc = 0.0
+ lwlc = 0.0
+ wwlc = 0.0
* Stress Parameters
+ saref = 3.0e-6
+ sbref = 3.0e-6
+ kvth0 = 9.8e-9
+ lkvth0 = 0.0
+ wkvth0 = 2.0e-7
+ pkvth0 = 0.0
+ llodvth = 0.0
+ wlodvth = 1.0
+ wlod = 0.0
+ stk2 = 0.0
+ lodk2 = 1.0
+ lodeta0 = 1.0
+ ku0 = -2.7e-8
+ lku0 = 0.0
+ wku0 = 0.0
+ pku0 = 0.0
+ tku0 = 0.0
+ llodku0 = 0.0
+ wlodku0 = 1.0
+ kvsat = 0.2
+ steta0 = 0.0
* Well Proximity Effect Parameters
.model sky130_fd_pr__nfet_01v8__model.2 nmos
* Model Flag Parameters
+ lmin = 4.0e-06 lmax = 8.0e-06 wmin = 7.0e-06 wmax = 0.0001
+ level = 54.0
+ version = 4.5
+ binunit = 2.0
+ mobmod = 0.0
+ capmod = 2.0
+ igcmod = 0.0
+ igbmod = 0.0
+ geomod = 0.0
+ diomod = 1.0
+ rdsmod = 0.0
+ rbodymod = 1.0
+ rgatemod = 0.0
+ permod = 1.0
+ acnqsmod = 0.0
+ trnqsmod = 0.0
+ fnoimod = 1.0
+ tnoimod = 1.0
+ tempmod = 0.0
* Process Parameters
*(mismatch parameter sky130_fd_pr__nfet_01v8__toxe_slope_spectre)
+ toxe = 3.932304e-09
+ toxm = 4.148e-9
+ dtox = 0.0
+ epsrox = 3.9
+ xj = 1.5e-7
+ ngate = 1.0e+23
+ ndep = 1.7e+17
+ nsd = 1.0e+20
+ rsh = 1.0
+ rshg = 0.1
* Basic Model Parameters
+ wint = -1.0316e-8
+ lint = 2.40595e-8
*(mismatch parameter sky130_fd_pr__nfet_01v8__vth0_slope_spectre)
+ vth0 = 5.218129600e-01 lvth0 = -2.533509204e-09 wvth0 = -3.186707545e-08 pvth0 = 2.534031918e-13
+ k1 = 5.415479012e-01 lk1 = -5.425180173e-09 wk1 = -6.823919393e-08 pk1 = 5.426299497e-13
+ k2 = -2.720722062e-02 lk2 = 3.830656641e-09 wk2 = 4.818290141e-08 pk2 = -3.831446982e-13
+ k3 = 2.0
+ k3b = 0.54
+ w0 = 0.0
+ dvt0 = 0.0
+ dvt1 = 0.53
+ dvt2 = -0.032
+ dvt0w = -3.58
+ dvt1w = 1670600.0
+ dvt2w = 0.068
+ dsub = 0.56
+ minv = 0.0
+ voffl = 5.8197729e-9
+ lpe0 = 1.0325e-7
+ lpeb = -7.082e-8
+ vbm = -3.0
+ dvtp0 = 0.0
+ dvtp1 = 0.0
+ phin = 0.0
+ cdsc = 0.0
+ cdscb = 0.0
+ cdscd = 0.0054
+ cit = 0.0
*(mismatch parameter sky130_fd_pr__nfet_01v8__voff_slope_spectre)
+ voff = -1.049986455e-01 lvoff = -2.146645748e-09 wvoff = -2.700101578e-08 pvoff = 2.147088644e-13
+ nfactor = 2.583165078e+00 lnfactor = -3.789133339e-08 wnfactor = -4.766061153e-07 pnfactor = 3.789915113e-12
+ eta0 = 0.08
+ etab = -0.07
+ u0 = 3.198065511e-02 lu0 = 7.828542819e-11 wu0 = 9.846925531e-10 pu0 = -7.830158004e-15
+ ua = -7.571315321e-10 lua = -3.076884210e-18 wua = -3.870177424e-17 pua = 3.077519033e-22
+ ub = 1.735654766e-18 lub = -6.121090184e-27 wub = -7.699251394e-26 pub = 6.122353088e-31
+ uc = 4.876862466e-11 luc = 3.764224339e-18 wuc = 4.734730026e-17 puc = -3.765000973e-22
+ ud = 0.0
+ up = 0.0
+ lp = 1.0
+ eu = 1.67
+ vtl = 0.0
+ xn = 3.0
+ vsat = 80000.0
+ a0 = 1.308117268e+00 la0 = 5.070701382e-08 wa0 = 6.378047621e-07 pa0 = -5.071747569e-12
+ ags = 4.237412493e-01 lags = -1.457176493e-09 wags = -1.832870911e-08 pags = 1.457477137e-13
+ a1 = 0.0
+ a2 = 0.42385546
+ b0 = 0.0
+ b1 = 1.950171466e-24 lb1 = 1.249804562e-30 wb1 = 1.572033612e-29 pb1 = -1.250062421e-34
+ keta = -8.286491579e-03 lketa = -4.040417702e-09 wketa = -5.082132543e-08 pketa = 4.041251321e-13
+ dwg = 0.0
+ dwb = 0.0
+ pclm = 6.813472448e-02 lpclm = -3.325375207e-07 wpclm = -4.182735252e-06 ppclm = 3.326061298e-11
+ pdiblc1 = 0.39
+ pdiblc2 = 3.074736097e-03 lpdiblc2 = -1.015771223e-11 wpdiblc2 = -1.277660967e-10 ppdiblc2 = 1.015980797e-15
+ pdiblcb = -0.025
+ drout = 0.56
+ pscbe1 = 7.580546759e+08 lpscbe1 = -2.688146055e+01 wpscbe1 = -3.381213417e+02 ppscbe1 = 2.688700673e-3
+ pscbe2 = 1.0e-12
+ pvag = 0.0
+ delta = 0.01
+ fprout = 0.0
+ pdits = 0.0
+ pditsl = 0.0
+ pditsd = 0.0
+ lambda = 0.0
+ lc = 5.0e-9
* Parameters FOR Asymmetric AND Bias-Dependent RDS Model
+ rdsw = 65.968
+ rsw = 0.0
+ rdw = 0.0
+ rdswmin = 0.0
+ rdwmin = 0.0
+ rswmin = 0.0
+ prwb = 0.0
+ prwg = 0.021507
+ wr = 1.0
* Impact Ionization Current Model Parameters
+ alpha0 = 3.0e-8
+ alpha1 = 0.85
+ beta0 = 13.86
* Gidl Induced Drain Leakage Model Parameters
+ agidl = 0.0
+ bgidl = 2300000000.0
+ cgidl = 0.5
+ egidl = 0.8
* Gate Dielectric Tunneling Current Model Parameters
+ toxref = 4.148e-9
+ dlcig = 0.0
+ aigbacc = 1.0
+ bigbacc = 0.0
+ cigbacc = 0.0
+ nigbacc = 0.0
+ aigbinv = 0.35
+ bigbinv = 0.03
+ cigbinv = 0.006
+ eigbinv = 1.1
+ nigbinv = 0.0
+ aigc = 0.43
+ bigc = 0.054
+ cigc = 0.075
+ aigsd = 0.43
+ bigsd = 0.054
+ cigsd = 0.075
+ nigc = 0.0
+ poxedge = 1.0
+ pigcd = 1.0
+ ntox = 1.0
+ vfbsdoff = 0.0
* Charge AND Capacitance Model Parameters
+ dlc = 2.3267e-8
+ dwc = -3.2175e-8
+ xpart = 0.0
+ cgso = 2.4083264e-10
+ cgdo = 2.4083264e-10
+ cgbo = 1.0e-13
+ cgdl = 0.0
+ cgsl = 0.0
+ clc = 1.0e-7
+ cle = 0.6
+ cf = 1.4067e-12
+ ckappas = 0.6
+ vfbcv = -1.0
+ acde = 0.4
+ moin = 6.9
+ noff = 3.4037
+ voffcv = -0.17287
* High-Speed/RF Model Parameters
+ xrcrg1 = 12.0
+ xrcrg2 = 1.0
+ rbpb = 50.0
+ rbpd = 50.0
+ rbps = 50.0
+ rbdb = 50.0
+ rbsb = 50.0
+ gbmin = 1.0e-12
* Flicker AND Thermal Noise Model Parameters
+ ef = 0.84
+ noia = 2.5e+42
+ noib = 0.0
+ noic = 0.0
+ em = 41000000.0
+ ntnoi = 1.0
+ lintnoi = -1.0e-7
+ af = 1.0
+ kf = 0.0
+ tnoia = 15000000.0
+ tnoib = 9900000.0
+ rnoia = 0.94
+ rnoib = 0.26
* Layout-Dependent Parasitics Model Parameters
+ xl = 0.0
+ xw = 0.0
+ dmcg = 0.0
+ dmdg = 0.0
+ dmcgt = 0.0
+ xgw = 0.0
+ xgl = 0.0
+ ngcon = 1.0
* Asymmetric Source/Drain Junction Diode Model Parameters
+ jss = 0.00275
+ jsws = 6.0e-10
+ ijthsfwd = 0.1
+ ijthsrev = 0.1
+ bvs = 11.7
+ xjbvs = 1.0
+ pbs = 0.729
+ cjs = 0.00104159201
+ mjs = 0.44
+ pbsws = 0.2
+ cjsws = 2.856175336e-11
+ mjsws = 0.0009
+ pbswgs = 0.95578
+ cjswgs = 1.852257592e-10
+ mjswgs = 0.8
* Temperature Dependence Parameters
+ tnom = 30.0
+ kt1 = -3.131873691e-01 lkt1 = 1.251380708e-09 wkt1 = 1.574016127e-08 pkt1 = -1.251638893e-13
+ kt2 = -4.539697534e-02 lkt2 = 6.650821582e-10 wkt2 = 8.365560022e-09 pkt2 = -6.652193779e-14
+ at = 140000.0
+ ute = -1.816368385e+00 lute = 2.360424274e-08 wute = 2.968997243e-07 pute = -2.360911277e-12
+ ua1 = 3.613302243e-10 lua1 = 1.168113480e-16 wua1 = 1.469280646e-15 pua1 = -1.168354485e-20
+ ub1 = -6.203888939e-19 lub1 = -1.529234671e-25 wub1 = -1.923507385e-24 pub1 = 1.529550183e-29
+ uc1 = 1.691322611e-11 luc1 = -8.615967309e-18 wuc1 = -1.083736660e-16 puc1 = 8.617744955e-22
+ kt1l = 0.0
+ prt = 0.0
+ tvoff = 0.0
+ njs = 1.2928
+ tpb = 0.0012287
+ tcj = 0.000792
+ tpbsw = 0.0
+ tcjsw = 1.0e-5
+ tpbswg = 0.0
+ tcjswg = 0.0
+ xtis = 2.0
+ tvfbsdoff = 0.0
* DW AND DL Parameters
+ ll = 0.0
+ wl = 0.0
+ lln = 1.0
+ wln = 1.0
+ lw = 0.0
+ ww = 0.0
+ lwn = 1.0
+ wwn = 1.0
+ lwl = 0.0
+ wwl = 0.0
+ llc = 0.0
+ wlc = 0.0
+ lwc = 0.0
+ wwc = 0.0
+ lwlc = 0.0
+ wwlc = 0.0
* Stress Parameters
+ saref = 3.0e-6
+ sbref = 3.0e-6
+ kvth0 = 9.8e-9
+ lkvth0 = 0.0
+ wkvth0 = 2.0e-7
+ pkvth0 = 0.0
+ llodvth = 0.0
+ wlodvth = 1.0
+ wlod = 0.0
+ stk2 = 0.0
+ lodk2 = 1.0
+ lodeta0 = 1.0
+ ku0 = -2.7e-8
+ lku0 = 0.0
+ wku0 = 0.0
+ pku0 = 0.0
+ tku0 = 0.0
+ llodku0 = 0.0
+ wlodku0 = 1.0
+ kvsat = 0.2
+ steta0 = 0.0
* Well Proximity Effect Parameters
.model sky130_fd_pr__nfet_01v8__model.3 nmos
* Model Flag Parameters
+ lmin = 2.0e-06 lmax = 4.0e-06 wmin = 7.0e-06 wmax = 0.0001
+ level = 54.0
+ version = 4.5
+ binunit = 2.0
+ mobmod = 0.0
+ capmod = 2.0
+ igcmod = 0.0
+ igbmod = 0.0
+ geomod = 0.0
+ diomod = 1.0
+ rdsmod = 0.0
+ rbodymod = 1.0
+ rgatemod = 0.0
+ permod = 1.0
+ acnqsmod = 0.0
+ trnqsmod = 0.0
+ fnoimod = 1.0
+ tnoimod = 1.0
+ tempmod = 0.0
* Process Parameters
*(mismatch parameter sky130_fd_pr__nfet_01v8__toxe_slope_spectre)
+ toxe = 3.932304e-09
+ toxm = 4.148e-9
+ dtox = 0.0
+ epsrox = 3.9
+ xj = 1.5e-7
+ ngate = 1.0e+23
+ ndep = 1.7e+17
+ nsd = 1.0e+20
+ rsh = 1.0
+ rshg = 0.1
* Basic Model Parameters
+ wint = -1.0316e-8
+ lint = 2.40595e-8
*(mismatch parameter sky130_fd_pr__nfet_01v8__vth0_slope_spectre)
+ vth0 = 5.172193813e-01 lvth0 = 1.561976709e-08 wvth0 = 1.059289624e-08 pvth0 = 8.560643642e-14
+ k1 = 5.305642003e-01 lk1 = 3.798109855e-08 wk1 = 1.374219832e-07 pk1 = -2.701185486e-13
+ k2 = -1.951904366e-02 lk2 = -2.655210381e-08 wk2 = -9.030202569e-08 pk2 = 1.641312539e-13
+ k3 = 2.0
+ k3b = 0.54
+ w0 = 0.0
+ dvt0 = 0.0
+ dvt1 = 0.53
+ dvt2 = -0.032
+ dvt0w = -3.58
+ dvt1w = 1670600.0
+ dvt2w = 0.068
+ dsub = 5.378976803e-01 ldsub = 8.734573725e-08 wdsub = 2.210687984e-06 pdsub = -8.736375842e-12
+ minv = 0.0
+ voffl = 5.8197729e-9
+ lpe0 = 1.0325e-7
+ lpeb = -7.082e-8
+ vbm = -3.0
+ dvtp0 = 0.0
+ dvtp1 = 0.0
+ phin = 0.0
+ cdsc = 0.0
+ cdscb = 0.0
+ cdscd = 0.0054
+ cit = 0.0
*(mismatch parameter sky130_fd_pr__nfet_01v8__voff_slope_spectre)
+ voff = -1.093607521e-01 lvoff = 1.509188017e-08 wvoff = 5.598118683e-08 pvoff = -1.132269255e-13
+ nfactor = 2.513649424e+00 lnfactor = 2.368262590e-07 wnfactor = 2.398232180e-07 pnfactor = 9.586716424e-13
+ eta0 = 7.414288528e-02 leta0 = 2.314662037e-08 weta0 = 5.858323158e-07 peta0 = -2.315139598e-12
+ etab = -6.487968019e-02 letab = -2.023489459e-08 wetab = -5.121376239e-07 petab = 2.023906945e-12
+ u0 = 3.200913334e-02 lu0 = -3.425715201e-11 wu0 = 1.102135439e-08 pu0 = -4.749385120e-14
+ ua = -7.760011693e-10 lua = 7.149367668e-17 wua = 1.342223993e-15 pua = -5.149502397e-21
+ ub = 1.731569260e-18 lub = 1.002434650e-26 wub = -6.758335518e-25 pub = 2.978783828e-30
+ uc = 5.869782097e-11 luc = -3.547477787e-17 wuc = -3.262199531e-16 puc = 1.099793233e-21
+ ud = 0.0
+ up = 0.0
+ lp = 1.0
+ eu = 1.67
+ vtl = 0.0
+ xn = 3.0
+ vsat = 80000.0
+ a0 = 1.407957701e+00 la0 = -3.438504978e-07 wa0 = -1.002383227e-06 pa0 = 1.410080182e-12
+ ags = 4.347153216e-01 lags = -4.482540441e-08 wags = -1.355800413e-06 pags = 5.431276727e-12
+ a1 = 0.0
+ a2 = 0.42385546
+ b0 = 0.0
+ b1 = 4.478325063e-24 lb1 = -8.741157602e-30 wb1 = -3.144067224e-29 pb1 = 6.136845078e-35
+ keta = -1.632297162e-02 lketa = 2.771879508e-08 wketa = 8.797632511e-08 pketa = -1.443866660e-13
+ dwg = 0.0
+ dwb = 0.0
+ pclm = -6.065884966e-01 lpclm = 2.333888357e-06 wpclm = 8.570843418e-06 ppclm = -1.714001225e-11
+ pdiblc1 = 0.39
+ pdiblc2 = 3.181049172e-03 lpdiblc2 = -4.302943326e-10 wpdiblc2 = -1.243313447e-08 ppdiblc2 = 4.964533227e-14
+ pdiblcb = -0.025
+ drout = 0.56
+ pscbe1 = 7.036778051e+08 lpscbe1 = 1.880094620e+02 wpscbe1 = 6.762426835e+02 ppscbe1 = -1.319945245e-3
+ pscbe2 = 1.0e-12
+ pvag = 0.0
+ delta = 0.01
+ fprout = 0.0
+ pdits = 0.0
+ pditsl = 0.0
+ pditsd = 0.0
+ lambda = 0.0
+ lc = 5.0e-9
* Parameters FOR Asymmetric AND Bias-Dependent RDS Model
+ rdsw = 65.968
+ rsw = 0.0
+ rdw = 0.0
+ rdswmin = 0.0
+ rdwmin = 0.0
+ rswmin = 0.0
+ prwb = 0.0
+ prwg = 0.021507
+ wr = 1.0
* Impact Ionization Current Model Parameters
+ alpha0 = 3.0e-8
+ alpha1 = 0.85
+ beta0 = 13.86
* Gidl Induced Drain Leakage Model Parameters
+ agidl = 0.0
+ bgidl = 2300000000.0
+ cgidl = 0.5
+ egidl = 0.8
* Gate Dielectric Tunneling Current Model Parameters
+ toxref = 4.148e-9
+ dlcig = 0.0
+ aigbacc = 1.0
+ bigbacc = 0.0
+ cigbacc = 0.0
+ nigbacc = 0.0
+ aigbinv = 0.35
+ bigbinv = 0.03
+ cigbinv = 0.006
+ eigbinv = 1.1
+ nigbinv = 0.0
+ aigc = 0.43
+ bigc = 0.054
+ cigc = 0.075
+ aigsd = 0.43
+ bigsd = 0.054
+ cigsd = 0.075
+ nigc = 0.0
+ poxedge = 1.0
+ pigcd = 1.0
+ ntox = 1.0
+ vfbsdoff = 0.0
* Charge AND Capacitance Model Parameters
+ dlc = 2.3267e-8
+ dwc = -3.2175e-8
+ xpart = 0.0
+ cgso = 2.4083264e-10
+ cgdo = 2.4083264e-10
+ cgbo = 1.0e-13
+ cgdl = 0.0
+ cgsl = 0.0
+ clc = 1.0e-7
+ cle = 0.6
+ cf = 1.4067e-12
+ ckappas = 0.6
+ vfbcv = -1.0
+ acde = 0.4
+ moin = 6.9
+ noff = 3.4037
+ voffcv = -0.17287
* High-Speed/RF Model Parameters
+ xrcrg1 = 12.0
+ xrcrg2 = 1.0
+ rbpb = 50.0
+ rbpd = 50.0
+ rbps = 50.0
+ rbdb = 50.0
+ rbsb = 50.0
+ gbmin = 1.0e-12
* Flicker AND Thermal Noise Model Parameters
+ ef = 0.84
+ noia = 2.5e+42
+ noib = 0.0
+ noic = 0.0
+ em = 41000000.0
+ ntnoi = 1.0
+ lintnoi = -1.0e-7
+ af = 1.0
+ kf = 0.0
+ tnoia = 15000000.0
+ tnoib = 9900000.0
+ rnoia = 0.94
+ rnoib = 0.26
* Layout-Dependent Parasitics Model Parameters
+ xl = 0.0
+ xw = 0.0
+ dmcg = 0.0
+ dmdg = 0.0
+ dmcgt = 0.0
+ xgw = 0.0
+ xgl = 0.0
+ ngcon = 1.0
* Asymmetric Source/Drain Junction Diode Model Parameters
+ jss = 0.00275
+ jsws = 6.0e-10
+ ijthsfwd = 0.1
+ ijthsrev = 0.1
+ bvs = 11.7
+ xjbvs = 1.0
+ pbs = 0.729
+ cjs = 0.00104159201
+ mjs = 0.44
+ pbsws = 0.2
+ cjsws = 2.856175336e-11
+ mjsws = 0.0009
+ pbswgs = 0.95578
+ cjswgs = 1.852257592e-10
+ mjswgs = 0.8
* Temperature Dependence Parameters
+ tnom = 30.0
+ kt1 = -3.113073089e-01 lkt1 = -6.178393478e-09 wkt1 = 3.366128340e-08 pkt1 = -1.959860314e-13
+ kt2 = -4.405263989e-02 lkt2 = -4.647571595e-09 wkt2 = -1.662922207e-08 pkt2 = 3.225446664e-14
+ at = 1.381537196e+05 lat = 7.296280585e-03 wat = 1.846661363e-01 pat = -7.297785953e-7
+ ute = -1.758431629e+00 lute = -2.053549213e-07 wute = -1.612926609e-06 pute = 5.186495125e-12
+ ua1 = 6.201857871e-10 lua1 = -9.061550323e-16 wua1 = -5.195526344e-15 pua1 = 1.465497926e-20
+ ub1 = -9.432506693e-19 lub1 = 1.122987849e-24 wub1 = 5.199513679e-24 pub1 = -1.285382978e-29
+ uc1 = -6.765134883e-14 luc1 = 5.849043968e-17 wuc1 = 1.719542394e-16 puc1 = -2.460480276e-22
+ kt1l = 0.0
+ prt = 0.0
+ tvoff = 0.0
+ njs = 1.2928
+ tpb = 0.0012287
+ tcj = 0.000792
+ tpbsw = 0.0
+ tcjsw = 1.0e-5
+ tpbswg = 0.0
+ tcjswg = 0.0
+ xtis = 2.0
+ tvfbsdoff = 0.0
* DW AND DL Parameters
+ ll = 0.0
+ wl = 0.0
+ lln = 1.0
+ wln = 1.0
+ lw = 0.0
+ ww = 0.0
+ lwn = 1.0
+ wwn = 1.0
+ lwl = 0.0
+ wwl = 0.0
+ llc = 0.0
+ wlc = 0.0
+ lwc = 0.0
+ wwc = 0.0
+ lwlc = 0.0
+ wwlc = 0.0
* Stress Parameters
+ saref = 3.0e-6
+ sbref = 3.0e-6
+ kvth0 = 9.8e-9
+ lkvth0 = 0.0
+ wkvth0 = 2.0e-7
+ pkvth0 = 0.0
+ llodvth = 0.0
+ wlodvth = 1.0
+ wlod = 0.0
+ stk2 = 0.0
+ lodk2 = 1.0
+ lodeta0 = 1.0
+ ku0 = -2.7e-8
+ lku0 = 0.0
+ wku0 = 0.0
+ pku0 = 0.0
+ tku0 = 0.0
+ llodku0 = 0.0
+ wlodku0 = 1.0
+ kvsat = 0.2
+ steta0 = 0.0
* Well Proximity Effect Parameters
.model sky130_fd_pr__nfet_01v8__model.4 nmos
* Model Flag Parameters
+ lmin = 1.0e-06 lmax = 2.0e-06 wmin = 7.0e-06 wmax = 0.0001
+ level = 54.0
+ version = 4.5
+ binunit = 2.0
+ mobmod = 0.0
+ capmod = 2.0
+ igcmod = 0.0
+ igbmod = 0.0
+ geomod = 0.0
+ diomod = 1.0
+ rdsmod = 0.0
+ rbodymod = 1.0
+ rgatemod = 0.0
+ permod = 1.0
+ acnqsmod = 0.0
+ trnqsmod = 0.0
+ fnoimod = 1.0
+ tnoimod = 1.0
+ tempmod = 0.0
* Process Parameters
*(mismatch parameter sky130_fd_pr__nfet_01v8__toxe_slope_spectre)
+ toxe = 3.932304e-09
+ toxm = 4.148e-9
+ dtox = 0.0
+ epsrox = 3.9
+ xj = 1.5e-7
+ ngate = 1.0e+23
+ ndep = 1.7e+17
+ nsd = 1.0e+20
+ rsh = 1.0
+ rshg = 0.1
* Basic Model Parameters
+ wint = -1.0316e-8
+ lint = 2.40595e-8
*(mismatch parameter sky130_fd_pr__nfet_01v8__vth0_slope_spectre)
+ vth0 = 5.269226307e-01 lvth0 = -3.319821014e-09 wvth0 = -1.156669319e-07 pvth0 = 3.320505960e-13
+ k1 = 5.524481767e-01 lk1 = -4.733819062e-09 wk1 = -2.435429029e-07 pk1 = 4.734795743e-13
+ k2 = -3.403716059e-02 lk2 = 1.785532771e-09 wk2 = 8.528315095e-08 pk2 = -1.785901162e-13
+ k3 = 2.0
+ k3b = 0.54
+ w0 = 0.0
+ dvt0 = 0.0
+ dvt1 = 0.53
+ dvt2 = -0.032
+ dvt0w = -3.58
+ dvt1w = 1670600.0
+ dvt2w = 0.068
+ dsub = 5.826472000e-01 wdsub = -2.265187257e-6
+ minv = 0.0
+ voffl = 5.8197729e-9
+ lpe0 = 1.0325e-7
+ lpeb = -7.082e-8
+ vbm = -3.0
+ dvtp0 = 0.0
+ dvtp1 = 0.0
+ phin = 0.0
+ cdsc = 0.0
+ cdscb = 0.0
+ cdscd = 0.0054
+ cit = 0.0
*(mismatch parameter sky130_fd_pr__nfet_01v8__voff_slope_spectre)
+ voff = -1.029738619e-01 lvoff = 2.625430530e-09 wvoff = 1.325075199e-07 pvoff = -2.625972209e-13
+ nfactor = 2.626480551e+00 lnfactor = 1.659332642e-08 wnfactor = 1.581271102e-06 pnfactor = -1.659674996e-12
+ eta0 = 8.614746983e-02 leta0 = -2.849001211e-10 weta0 = -6.148738175e-07 peta0 = 2.849589016e-14
+ etab = -7.523302611e-02 letab = -2.639540117e-11 wetab = 5.234105783e-07 petab = 2.640084707e-15
+ u0 = 3.168571117e-02 lu0 = 5.970244211e-10 wu0 = 1.728244751e-08 pu0 = -5.971475991e-14
+ ua = -7.764945590e-10 lua = 7.245671468e-17 wua = 2.416912458e-15 pua = -7.247166394e-21
+ ub = 1.767613406e-18 lub = -6.032953795e-26 wub = -2.241202899e-24 pub = 6.034198514e-30
+ uc = 3.955731360e-11 luc = 1.885214783e-18 wuc = 3.338375030e-16 puc = -1.885603740e-22
+ ud = 0.0
+ up = 0.0
+ lp = 1.0
+ eu = 1.67
+ vtl = 0.0
+ xn = 3.0
+ vsat = 8.145872006e+04 lvsat = -2.847247979e-03 wvsat = -1.459021028e-01 pvsat = 2.847835423e-7
+ a0 = 1.225512924e+00 la0 = 1.225999733e-08 wa0 = 3.482794738e-07 pa0 = -1.226252682e-12
+ ags = 4.303748814e-01 lags = -3.635338168e-08 wags = -4.360780954e-07 pags = 3.636088211e-12
+ a1 = 0.0
+ a2 = 0.42385546
+ b0 = 0.0
+ b1 = 0.0
+ keta = -6.788693384e-03 lketa = 9.109018544e-09 wketa = 4.807785122e-07 pketa = -9.110897917e-13
+ dwg = 0.0
+ dwb = 0.0
+ pclm = 5.770898436e-01 lpclm = 2.348909453e-08 wpclm = 9.932205155e-07 ppclm = -2.349394080e-12
+ pdiblc1 = 4.127907046e-01 lpdiblc1 = -4.448474321e-08 wpdiblc1 = -2.279540674e-06 ppdiblc1 = 4.449392130e-12
+ pdiblc2 = 2.903034209e-03 lpdiblc2 = 1.123577912e-10 wpdiblc2 = 1.875904864e-08 ppdiblc2 = -1.123809728e-14
+ pdiblcb = -2.321731417e-02 lpdiblcb = -3.479590594e-09 wpdiblcb = -1.783053630e-07 ppdiblcb = 3.480308503e-13
+ drout = 5.384425606e-01 ldrout = 4.207755634e-08 wdrout = 2.156188711e-06 pdrout = -4.208623778e-12
+ pscbe1 = 7.612738250e+08 lpscbe1 = 7.558888522e+01 wpscbe1 = 3.873416500e+03 ppscbe1 = -7.560448072e-3
+ pscbe2 = 1.0e-12
+ pvag = 0.0
+ delta = 0.01
+ fprout = 0.0
+ pdits = 0.0
+ pditsl = 0.0
+ pditsd = 0.0
+ lambda = 0.0
+ lc = 5.0e-9
* Parameters FOR Asymmetric AND Bias-Dependent RDS Model
+ rdsw = 65.968
+ rsw = 0.0
+ rdw = 0.0
+ rdswmin = 0.0
+ rdwmin = 0.0
+ rswmin = 0.0
+ prwb = 0.0
+ prwg = 0.021507
+ wr = 1.0
* Impact Ionization Current Model Parameters
+ alpha0 = 2.175497226e-07 lalpha0 = -3.660747402e-13 walpha0 = -1.875884179e-11 palpha0 = 3.661502687e-17
+ alpha1 = 8.524431765e-01 lalpha1 = -4.768789719e-09 walpha1 = -2.443680540e-07 palpha1 = 4.769773615e-13
+ beta0 = 1.405919074e+01 lbeta0 = -3.887966206e-07 wbeta0 = -1.992318369e-05 pbeta0 = 3.888768371e-11
* Gidl Induced Drain Leakage Model Parameters
+ agidl = 0.0
+ bgidl = 2300000000.0
+ cgidl = 0.5
+ egidl = 0.8
* Gate Dielectric Tunneling Current Model Parameters
+ toxref = 4.148e-9
+ dlcig = 0.0
+ aigbacc = 1.0
+ bigbacc = 0.0
+ cigbacc = 0.0
+ nigbacc = 0.0
+ aigbinv = 0.35
+ bigbinv = 0.03
+ cigbinv = 0.006
+ eigbinv = 1.1
+ nigbinv = 0.0
+ aigc = 0.43
+ bigc = 0.054
+ cigc = 0.075
+ aigsd = 0.43
+ bigsd = 0.054
+ cigsd = 0.075
+ nigc = 0.0
+ poxedge = 1.0
+ pigcd = 1.0
+ ntox = 1.0
+ vfbsdoff = 0.0
* Charge AND Capacitance Model Parameters
+ dlc = 2.3267e-8
+ dwc = -3.2175e-8
+ xpart = 0.0
+ cgso = 2.4083264e-10
+ cgdo = 2.4083264e-10
+ cgbo = 1.0e-13
+ cgdl = 0.0
+ cgsl = 0.0
+ clc = 1.0e-7
+ cle = 0.6
+ cf = 1.4067e-12
+ ckappas = 0.6
+ vfbcv = -1.0
+ acde = 0.4
+ moin = 6.9
+ noff = 3.4037
+ voffcv = -0.17287
* High-Speed/RF Model Parameters
+ xrcrg1 = 12.0
+ xrcrg2 = 1.0
+ rbpb = 50.0
+ rbpd = 50.0
+ rbps = 50.0
+ rbdb = 50.0
+ rbsb = 50.0
+ gbmin = 1.0e-12
* Flicker AND Thermal Noise Model Parameters
+ ef = 0.84
+ noia = 2.5e+42
+ noib = 0.0
+ noic = 0.0
+ em = 41000000.0
+ ntnoi = 1.0
+ lintnoi = -1.0e-7
+ af = 1.0
+ kf = 0.0
+ tnoia = 15000000.0
+ tnoib = 9900000.0
+ rnoia = 0.94
+ rnoib = 0.26
* Layout-Dependent Parasitics Model Parameters
+ xl = 0.0
+ xw = 0.0
+ dmcg = 0.0
+ dmdg = 0.0
+ dmcgt = 0.0
+ xgw = 0.0
+ xgl = 0.0
+ ngcon = 1.0
* Asymmetric Source/Drain Junction Diode Model Parameters
+ jss = 0.00275
+ jsws = 6.0e-10
+ ijthsfwd = 0.1
+ ijthsrev = 0.1
+ bvs = 11.7
+ xjbvs = 1.0
+ pbs = 0.729
+ cjs = 0.00104159201
+ mjs = 0.44
+ pbsws = 0.2
+ cjsws = 2.856175336e-11
+ mjsws = 0.0009
+ pbswgs = 0.95578
+ cjswgs = 1.852257592e-10
+ mjswgs = 0.8
* Temperature Dependence Parameters
+ tnom = 30.0
+ kt1 = -3.107870590e-01 lkt1 = -7.193859549e-09 wkt1 = -4.353839145e-07 pkt1 = 7.195343786e-13
+ kt2 = -4.499211016e-02 lkt2 = -2.813837418e-09 wkt2 = -1.442944487e-07 pkt2 = 2.814417968e-13
+ at = 1.381857848e+05 lat = 7.233692969e-03 wat = 1.814589465e-01 pat = -7.235185425e-7
+ ute = -1.804136022e+00 lute = -1.161453856e-07 wute = -4.907410108e-06 pute = 1.161693487e-11
+ ua1 = 2.794532101e-10 lua1 = -2.410855892e-16 wua1 = -1.004139232e-14 pua1 = 2.411353299e-20
+ ub1 = -4.327624759e-19 lub1 = 1.265756432e-25 wub1 = 5.100299665e-24 pub1 = -1.266017583e-29
+ uc1 = 3.129483059e-11 luc1 = -2.725392919e-18 wuc1 = -9.376049924e-17 puc1 = 2.725955222e-22
+ kt1l = 0.0
+ prt = 0.0
+ tvoff = 0.0
+ njs = 1.2928
+ tpb = 0.0012287
+ tcj = 0.000792
+ tpbsw = 0.0
+ tcjsw = 1.0e-5
+ tpbswg = 0.0
+ tcjswg = 0.0
+ xtis = 2.0
+ tvfbsdoff = 0.0
* DW AND DL Parameters
+ ll = 0.0
+ wl = 0.0
+ lln = 1.0
+ wln = 1.0
+ lw = 0.0
+ ww = 0.0
+ lwn = 1.0
+ wwn = 1.0
+ lwl = 0.0
+ wwl = 0.0
+ llc = 0.0
+ wlc = 0.0
+ lwc = 0.0
+ wwc = 0.0
+ lwlc = 0.0
+ wwlc = 0.0
* Stress Parameters
+ saref = 2.75e-6
+ sbref = 2.74e-6
+ kvth0 = 9.8e-9
+ lkvth0 = 0.0
+ wkvth0 = 2.0e-7
+ pkvth0 = 0.0
+ llodvth = 0.0
+ wlodvth = 1.0
+ wlod = 0.0
+ stk2 = 0.0
+ lodk2 = 1.0
+ lodeta0 = 1.0
+ ku0 = -2.7e-8
+ lku0 = 0.0
+ wku0 = 0.0
+ pku0 = 0.0