.model sky130_fd_pr__nfet_g5v0d10v5__model.0 nmos
* DC IV MOS Parameters
+ lmin = 2.0e-05 lmax = 1.0e-04 wmin = 2.0e-05 wmax = 1.0e-4
+ level = 54.0
+ tnom = 30.0
+ version = 4.5
+ toxm = 1.16e-8
+ xj = 1.5e-7
+ lln = 1.0
+ lwn = 1.0
+ wln = 1.0
+ wwn = 1.0
+ lint = 5.9182e-8
+ ll = 0.0
+ lw = 0.0
+ lwl = 0.0
+ wint = 5.3521e-8
+ wl = 0.0
+ ww = 0.0
+ wwl = 0.0
+ xl = 0.0
+ xw = 0.0
+ mobmod = 0.0
+ binunit = 2.0
+ dwg = -4.1292e-9
+ dwb = -1.6944e-9
* BSIM4 - Model Selectors
+ igcmod = 0.0
+ igbmod = 0.0
+ rgatemod = 0.0
+ rbodymod = 1.0
+ trnqsmod = 0.0
+ acnqsmod = 0.0
+ fnoimod = 1.0
+ tnoimod = 1.0
+ permod = 1.0
+ geomod = 0.0
+ rdsmod = 0.0
+ tempmod = 0.0
+ lintnoi = 0.0
+ vfbsdoff = 0.0
+ lambda = 0.0
+ vtl = 0.0
+ lc = 5.0e-9
+ xn = 3.0
+ rnoia = 0.794
+ rnoib = 0.38
+ tnoia = 7.50e+6
+ tnoib = 7.2e+6
* BSIM4 - Process Parameters
+ epsrox = 3.9
*(mismatch parameter sky130_fd_pr__nfet_g5v0d10v5__toxe_slope_spectre)
+ toxe = 1.2296e-08
+ dtox = 0.0
+ ndep = 1.7000000000000000e+17
+ nsd = 1.0e+20
+ rshg = 0.1
+ rsh = 1.0
* Threshold Voltage Parameters
*(mismatch parameter sky130_fd_pr__nfet_g5v0d10v5__vth0_slope_spectre)
+ vth0 = 0.784341
+ k1 = 0.88325
+ k2 = -0.040766
+ k3 = -0.884
+ dvt0 = 0.0
+ dvt1 = 0.53
+ dvt2 = -0.19251
+ dvt0w = 0.16
+ dvt1w = 6909100.0
+ dvt2w = -0.036016
+ w0 = 0.0
+ k3b = 0.43
* NEW BSIM4 Parameters for Level 54
+ phin = 0.0
+ lpe0 = 2.5e-8
+ lpeb = -2.182e-7
+ vbm = -3.0
+ dvtp0 = 0.0
+ dvtp1 = 0.0
* Mobility Parameters
+ vsat = 105660.0
+ ua = -5.94326e-11
+ ub = 1.69076e-18
+ uc = 6.6204e-11
+ rdsw = 724.62
+ prwb = 0.05626
+ prwg = 0.048
+ wr = 1.0
+ u0 = 0.0419527
+ a0 = 0.9402534
+ keta = -0.02132
+ a1 = 0.0
+ a2 = 0.65972622
+ ags = 0.1559904
+ b0 = 3.2933e-8
+ b1 = 0.0
* BSIM4 - Mobility Parameters
+ eu = 1.67
+ rdswmin = 0.0
+ rdw = 0.0
+ rdwmin = 0.0
+ rsw = 0.0
+ rswmin = 0.0
* Subthreshold Current Parameters
*(mismatch parameter sky130_fd_pr__nfet_g5v0d10v5__voff_slope_spectre)
+ voff = -0.20613
*(mismatch parameter sky130_fd_pr__nfet_g5v0d10v5__nfactor_slope_spectre)
+ nfactor = 1.00437
+ up = 0.0
+ ud = 0.0
+ lp = 1.0
+ tvfbsdoff = 0.0
+ tvoff = 0.0
+ cit = -8.0e-4
+ cdsc = 0.0
+ cdscb = 0.0
+ cdscd = 0.0
+ eta0 = 0.032
+ etab = -0.01932
+ dsub = 0.504
* BSIM4 - Sub-threshold parameters
+ voffl = -4.2579486e-7
+ minv = 0.0
* Rout Parameters
+ pclm = 0.33405
+ pdiblc1 = 0.21098
+ pdiblc2 = 2.0e-4
+ pdiblcb = -0.26831
+ drout = 0.36075
+ pscbe1 = 937310000.0
+ pscbe2 = 1.68e-6
+ pvag = 1.99
+ delta = 0.0246
+ alpha0 = 1.4467e-5
+ alpha1 = 0.0
+ beta0 = 24.0
* BSIM4 - Rout Parameters
+ fprout = 10.125
+ pdits = 0.0
+ pditsl = 0.0
+ pditsd = 0.0
* BSIM4 - Gate Induced Drain Leakage Model Parameters
+ agidl = 5.06e-11
+ bgidl = 1058000000.0
+ cgidl = 4000.0
+ egidl = 0.8
* BSIM4 - Gate Leakage Current Parameters
+ aigbacc = 1.0
+ bigbacc = 0.0
+ cigbacc = 0.0
+ nigbacc = 1.0
+ aigbinv = 0.35
+ bigbinv = 0.03
+ cigbinv = 0.006
+ eigbinv = 1.1
+ nigbinv = 3.0
+ aigc = 0.43
+ bigc = 0.054
+ cigc = 0.075
+ nigc = 1.0
+ aigsd = 0.43
+ bigsd = 0.054
+ cigsd = 0.075
+ dlcig = 0.0
+ poxedge = 1.0
+ pigcd = 1.0
+ ntox = 1.0
+ toxref = 1.16e-8
* Temperature Effects Parameters
+ kt1 = -0.40273
+ kt2 = -0.019151
+ at = 160000.0
+ ute = -1.2986
+ ua1 = 3.0044e-9
+ ub1 = -3.7525e-18
+ uc1 = -5.9821e-11
+ kt1l = 0.0
+ prt = 0.0
* BSIM4 - High Speed RF Model Parameters
+ xrcrg1 = 12.0
+ xrcrg2 = 1.0
+ rbpb = 50.0
+ rbpd = 50.0
+ rbps = 50.0
+ rbdb = 50.0
+ rbsb = 50.0
+ gbmin = 1.0e-12
* BSIM4 - Flicker and Thermal Noise Parameters
+ noia = 2.6e+41
+ noib = 0.0
+ noic = 0.0
+ em = 4.1000000e+7
+ af = 1.0
+ ef = 0.89
+ kf = 0.0
+ ntnoi = 1.0
* BSIM4 - Layout Dependent Parasitic Model Parameters
+ dmcg = 0.0
+ dmcgt = 0.0
+ dmdg = 0.0
+ xgw = 0.0
+ xgl = 0.0
+ ngcon = 1.0
* Diode DC IV Parameters
* BSIM4 - Diode DC IV parameters
+ diomod = 1.0
+ njs = 1.0773
+ jss = 0.000375
+ jsws = 5.84e-11
+ xtis = 0.76
+ bvs = 12.636
+ xjbvs = 1.0
+ ijthsrev = 0.1
+ ijthsfwd = 0.1
* Diode and FET Capacitance Parameters
+ tpb = 0.001344
+ tpbsw = 0.00099005
+ tpbswg = 0.0
+ tcj = 0.00067434
+ tcjsw = 0.0002493
+ tcjswg = 0.0
+ cgdo = 3.19377688e-10
+ cgso = 3.19377688e-10
+ cgbo = 0.0
+ capmod = 2.0
+ xpart = 0.0
+ cgsl = 5.206e-11
+ cgdl = 5.206e-11
+ cf = 0.0
+ clc = 1.0e-7
+ cle = 0.6
+ dlc = 4.867e-8
+ dwc = 3.2175e-8
+ vfbcv = -1.0
+ acde = 0.4176
+ moin = 15.0
+ noff = 4.0
+ voffcv = -0.4104
+ ngate = 1.0e+23
+ lwc = 0.0
+ llc = 0.0
+ lwlc = 0.0
+ wlc = 0.0
+ wwc = 0.0
+ wwlc = 0.0
* BSIM4 - FET and Diode capacitance parameters
+ ckappas = 0.6
+ cjs = 0.00099811712
+ mjs = 0.295
+ pbs = 0.72468
+ cjsws = 1.06590204e-10
+ mjsws = 0.037586
+ pbsws = 0.29067
+ cjswgs = 6.7554e-11
+ mjswgs = 0.78692
+ pbswgs = 0.54958
* Stress Parameters
+ saref = 3.0e-6
+ sbref = 3.0e-6
+ wlod = 0
+ kvth0 = 0
+ lkvth0 = 0
+ wkvth0 = 0
+ pkvth0 = 0.0
+ llodvth = 0.0
+ wlodvth = 1.0
+ stk2 = 0.0
+ lodk2 = 1.0
+ lodeta0 = 1.0
+ ku0 = 0
+ lku0 = 0
+ wku0 = 0
+ pku0 = 0.0
+ llodku0 = 0.0
+ wlodku0 = 1.0
+ kvsat = 0
+ steta0 = 0.0
+ tku0 = 0.0
.model sky130_fd_pr__nfet_g5v0d10v5__model.1 nmos
* DC IV MOS Parameters
+ lmin = 8e-06 lmax = 2.0e-05 wmin = 2.0e-05 wmax = 1.0e-4
+ level = 54.0
+ tnom = 30.0
+ version = 4.5
+ toxm = 1.16e-8
+ xj = 1.5e-7
+ lln = 1.0
+ lwn = 1.0
+ wln = 1.0
+ wwn = 1.0
+ lint = 5.9182e-8
+ ll = 0.0
+ lw = 0.0
+ lwl = 0.0
+ wint = 5.3521e-8
+ wl = 0.0
+ ww = 0.0
+ wwl = 0.0
+ xl = 0.0
+ xw = 0.0
+ mobmod = 0.0
+ binunit = 2.0
+ dwg = -4.1292e-9
+ dwb = -1.6944e-9
* BSIM4 - Model Selectors
+ igcmod = 0.0
+ igbmod = 0.0
+ rgatemod = 0.0
+ rbodymod = 1.0
+ trnqsmod = 0.0
+ acnqsmod = 0.0
+ fnoimod = 1.0
+ tnoimod = 1.0
+ permod = 1.0
+ geomod = 0.0
+ rdsmod = 0.0
+ tempmod = 0.0
+ lintnoi = 0.0
+ vfbsdoff = 0.0
+ lambda = 0.0
+ vtl = 0.0
+ lc = 5.0e-9
+ xn = 3.0
+ rnoia = 0.794
+ rnoib = 0.38
+ tnoia = 7.50e+6
+ tnoib = 7.2e+6
* BSIM4 - Process Parameters
+ epsrox = 3.9
*(mismatch parameter sky130_fd_pr__nfet_g5v0d10v5__toxe_slope_spectre)
+ toxe = 1.2296e-08
+ dtox = 0.0
+ ndep = 1.7000000000000000e+17
+ nsd = 1.0e+20
+ rshg = 0.1
+ rsh = 1.0
* Threshold Voltage Parameters
*(mismatch parameter sky130_fd_pr__nfet_g5v0d10v5__vth0_slope_spectre)
+ vth0 = 0.784341
+ k1 = 0.88325
+ k2 = -0.040766
+ k3 = -0.884
+ dvt0 = 0.0
+ dvt1 = 0.53
+ dvt2 = -0.19251
+ dvt0w = 0.16
+ dvt1w = 6909100.0
+ dvt2w = -0.036016
+ w0 = 0.0
+ k3b = 0.43
* NEW BSIM4 Parameters for Level 54
+ phin = 0.0
+ lpe0 = 2.5e-8
+ lpeb = -2.182e-7
+ vbm = -3.0
+ dvtp0 = 0.0
+ dvtp1 = 0.0
* Mobility Parameters
+ vsat = 105660.0
+ ua = -5.94326e-11
+ ub = 1.69076e-18
+ uc = 6.6204e-11
+ rdsw = 724.62
+ prwb = 0.05626
+ prwg = 0.048
+ wr = 1.0
+ u0 = 0.0419527
+ a0 = 0.9402534
+ keta = -0.02132
+ a1 = 0.0
+ a2 = 0.65972622
+ ags = 0.1559904
+ b0 = 3.2933e-8
+ b1 = 0.0
* BSIM4 - Mobility Parameters
+ eu = 1.67
+ rdswmin = 0.0
+ rdw = 0.0
+ rdwmin = 0.0
+ rsw = 0.0
+ rswmin = 0.0
* Subthreshold Current Parameters
*(mismatch parameter sky130_fd_pr__nfet_g5v0d10v5__voff_slope_spectre)
+ voff = -0.20613
*(mismatch parameter sky130_fd_pr__nfet_g5v0d10v5__nfactor_slope_spectre)
+ nfactor = 1.00437
+ up = 0.0
+ ud = 0.0
+ lp = 1.0
+ tvfbsdoff = 0.0
+ tvoff = 0.0
+ cit = -8.0e-4
+ cdsc = 0.0
+ cdscb = 0.0
+ cdscd = 0.0
+ eta0 = 0.032
+ etab = -0.01932
+ dsub = 0.504
* BSIM4 - Sub-threshold parameters
+ voffl = -4.2579486e-7
+ minv = 0.0
* Rout Parameters
+ pclm = 0.33405
+ pdiblc1 = 0.21098
+ pdiblc2 = 2.0e-4
+ pdiblcb = -0.26831
+ drout = 0.36075
+ pscbe1 = 937310000.0
+ pscbe2 = 1.68e-6
+ pvag = 1.99
+ delta = 0.0246
+ alpha0 = 1.4467e-5
+ alpha1 = 0.0
+ beta0 = 24.0
* BSIM4 - Rout Parameters
+ fprout = 10.125
+ pdits = 0.0
+ pditsl = 0.0
+ pditsd = 0.0
* BSIM4 - Gate Induced Drain Leakage Model Parameters
+ agidl = 5.06e-11
+ bgidl = 1058000000.0
+ cgidl = 4000.0
+ egidl = 0.8
* BSIM4 - Gate Leakage Current Parameters
+ aigbacc = 1.0
+ bigbacc = 0.0
+ cigbacc = 0.0
+ nigbacc = 1.0
+ aigbinv = 0.35
+ bigbinv = 0.03
+ cigbinv = 0.006
+ eigbinv = 1.1
+ nigbinv = 3.0
+ aigc = 0.43
+ bigc = 0.054
+ cigc = 0.075
+ nigc = 1.0
+ aigsd = 0.43
+ bigsd = 0.054
+ cigsd = 0.075
+ dlcig = 0.0
+ poxedge = 1.0
+ pigcd = 1.0
+ ntox = 1.0
+ toxref = 1.16e-8
* Temperature Effects Parameters
+ kt1 = -0.40273
+ kt2 = -0.019151
+ at = 160000.0
+ ute = -1.2986
+ ua1 = 3.0044e-9
+ ub1 = -3.7525e-18
+ uc1 = -5.9821e-11
+ kt1l = 0.0
+ prt = 0.0
* BSIM4 - High Speed RF Model Parameters
+ xrcrg1 = 12.0
+ xrcrg2 = 1.0
+ rbpb = 50.0
+ rbpd = 50.0
+ rbps = 50.0
+ rbdb = 50.0
+ rbsb = 50.0
+ gbmin = 1.0e-12
* BSIM4 - Flicker and Thermal Noise Parameters
+ noia = 2.6e+41
+ noib = 0.0
+ noic = 0.0
+ em = 4.1000000e+7
+ af = 1.0
+ ef = 0.89
+ kf = 0.0
+ ntnoi = 1.0
* BSIM4 - Layout Dependent Parasitic Model Parameters
+ dmcg = 0.0
+ dmcgt = 0.0
+ dmdg = 0.0
+ xgw = 0.0
+ xgl = 0.0
+ ngcon = 1.0
* Diode DC IV Parameters
* BSIM4 - Diode DC IV parameters
+ diomod = 1.0
+ njs = 1.0773
+ jss = 0.000375
+ jsws = 5.84e-11
+ xtis = 0.76
+ bvs = 12.636
+ xjbvs = 1.0
+ ijthsrev = 0.1
+ ijthsfwd = 0.1
* Diode and FET Capacitance Parameters
+ tpb = 0.001344
+ tpbsw = 0.00099005
+ tpbswg = 0.0
+ tcj = 0.00067434
+ tcjsw = 0.0002493
+ tcjswg = 0.0
+ cgdo = 3.19377688e-10
+ cgso = 3.19377688e-10
+ cgbo = 0.0
+ capmod = 2.0
+ xpart = 0.0
+ cgsl = 5.206e-11
+ cgdl = 5.206e-11
+ cf = 0.0
+ clc = 1.0e-7
+ cle = 0.6
+ dlc = 4.867e-8
+ dwc = 3.2175e-8
+ vfbcv = -1.0
+ acde = 0.4176
+ moin = 15.0
+ noff = 4.0
+ voffcv = -0.4104
+ ngate = 1.0e+23
+ lwc = 0.0
+ llc = 0.0
+ lwlc = 0.0
+ wlc = 0.0
+ wwc = 0.0
+ wwlc = 0.0
* BSIM4 - FET and Diode capacitance parameters
+ ckappas = 0.6
+ cjs = 0.00099811712
+ mjs = 0.295
+ pbs = 0.72468
+ cjsws = 1.06590204e-10
+ mjsws = 0.037586
+ pbsws = 0.29067
+ cjswgs = 6.7554e-11
+ mjswgs = 0.78692
+ pbswgs = 0.54958
* Stress Parameters
+ saref = 3.0e-6
+ sbref = 3.0e-6
+ wlod = 0
+ kvth0 = 0
+ lkvth0 = 0
+ wkvth0 = 0
+ pkvth0 = 0.0
+ llodvth = 0.0
+ wlodvth = 1.0
+ stk2 = 0.0
+ lodk2 = 1.0
+ lodeta0 = 1.0
+ ku0 = 0
+ lku0 = 0
+ wku0 = 0
+ pku0 = 0.0
+ llodku0 = 0.0
+ wlodku0 = 1.0
+ kvsat = 0
+ steta0 = 0.0
+ tku0 = 0.0
.model sky130_fd_pr__nfet_g5v0d10v5__model.2 nmos
* DC IV MOS Parameters
+ lmin = 4e-06 lmax = 8e-06 wmin = 2.0e-05 wmax = 1.0e-4
+ level = 54.0
+ tnom = 30.0
+ version = 4.5
+ toxm = 1.16e-8
+ xj = 1.5e-7
+ lln = 1.0
+ lwn = 1.0
+ wln = 1.0
+ wwn = 1.0
+ lint = 5.9182e-8
+ ll = 0.0
+ lw = 0.0
+ lwl = 0.0
+ wint = 5.3521e-8
+ wl = 0.0
+ ww = 0.0
+ wwl = 0.0
+ xl = 0.0
+ xw = 0.0
+ mobmod = 0.0
+ binunit = 2.0
+ dwg = -4.1292e-9
+ dwb = -1.6944e-9
* BSIM4 - Model Selectors
+ igcmod = 0.0
+ igbmod = 0.0
+ rgatemod = 0.0
+ rbodymod = 1.0
+ trnqsmod = 0.0
+ acnqsmod = 0.0
+ fnoimod = 1.0
+ tnoimod = 1.0
+ permod = 1.0
+ geomod = 0.0
+ rdsmod = 0.0
+ tempmod = 0.0
+ lintnoi = 0.0
+ vfbsdoff = 0.0
+ lambda = 0.0
+ vtl = 0.0
+ lc = 5.0e-9
+ xn = 3.0
+ rnoia = 0.794
+ rnoib = 0.38
+ tnoia = 7.50e+6
+ tnoib = 7.2e+6
* BSIM4 - Process Parameters
+ epsrox = 3.9
*(mismatch parameter sky130_fd_pr__nfet_g5v0d10v5__toxe_slope_spectre)
+ toxe = 1.2296e-08
+ dtox = 0.0
+ ndep = 1.7000000000000000e+17
+ nsd = 1.0e+20
+ rshg = 0.1
+ rsh = 1.0
* Threshold Voltage Parameters
*(mismatch parameter sky130_fd_pr__nfet_g5v0d10v5__vth0_slope_spectre)
+ vth0 = 0.778154642625 lvth0 = 4.87586169956661e-8
+ k1 = 0.88325
+ k2 = -0.042248784952 lk2 = 1.16867712579414e-8
+ k3 = -0.884
+ dvt0 = 0.0
+ dvt1 = 0.53
+ dvt2 = -0.19251
+ dvt0w = 0.16
+ dvt1w = 6909100.0
+ dvt2w = -0.036016
+ w0 = 0.0
+ k3b = 0.43
* NEW BSIM4 Parameters for Level 54
+ phin = 0.0
+ lpe0 = 2.5e-8
+ lpeb = -2.182e-7
+ vbm = -3.0
+ dvtp0 = 0.0
+ dvtp1 = 0.0
* Mobility Parameters
+ vsat = 110512.045 lvsat = -0.03824205254562
+ ua = -1.020396686767e-10 lua = 3.35813406336751e-16
+ ub = 1.57307850057e-18 lub = 9.27522742441469e-25
+ uc = 6.6204e-11
+ rdsw = 724.62
+ prwb = 0.05626
+ prwg = 0.048
+ wr = 1.0
+ u0 = 0.040631002942 lu0 = 1.04171351134268e-8
+ a0 = 1.0357342704916 la0 = -7.52545466177932e-7
+ keta = -0.017231666883 lketa = -3.22227534749394e-8
+ a1 = 0.0
+ a2 = 0.65972622
+ ags = 0.1458383692056 lags = 8.00146113822516e-8
+ b0 = 3.2933e-8
+ b1 = 0.0
* BSIM4 - Mobility Parameters
+ eu = 1.67
+ rdswmin = 0.0
+ rdw = 0.0
+ rdwmin = 0.0
+ rsw = 0.0
+ rswmin = 0.0
* Subthreshold Current Parameters
*(mismatch parameter sky130_fd_pr__nfet_g5v0d10v5__voff_slope_spectre)
+ voff = -0.20613
*(mismatch parameter sky130_fd_pr__nfet_g5v0d10v5__nfactor_slope_spectre)
+ nfactor = 1.05983857844 lnfactor = -4.37183144701528e-7
+ up = 0.0
+ ud = 0.0
+ lp = 1.0
+ tvfbsdoff = 0.0
+ tvoff = 0.0
+ cit = -8.0e-4
+ cdsc = 0.0
+ cdscb = 0.0
+ cdscd = 0.0
+ eta0 = 0.032
+ etab = -0.01932
+ dsub = 0.504
* BSIM4 - Sub-threshold parameters
+ voffl = -4.2579486e-7
+ minv = 0.0
* Rout Parameters
+ pclm = 0.25924117019 lpclm = 5.89615966148369e-7
+ pdiblc1 = 0.21098
+ pdiblc2 = 2.0e-4
+ pdiblcb = -0.26831
+ drout = 0.36075
+ pscbe1 = 937310000.0
+ pscbe2 = 1.68e-6
+ pvag = 1.99
+ delta = 0.0246
+ alpha0 = 1.4467e-5
+ alpha1 = 0.0
+ beta0 = 21.4769366 lbeta0 = 1.98858673237224e-5
* BSIM4 - Rout Parameters
+ fprout = 10.125
+ pdits = 0.0
+ pditsl = 0.0
+ pditsd = 0.0
* BSIM4 - Gate Induced Drain Leakage Model Parameters
+ agidl = 5.06e-11
+ bgidl = 1058000000.0
+ cgidl = 4000.0
+ egidl = 0.8
* BSIM4 - Gate Leakage Current Parameters
+ aigbacc = 1.0
+ bigbacc = 0.0
+ cigbacc = 0.0
+ nigbacc = 1.0
+ aigbinv = 0.35
+ bigbinv = 0.03
+ cigbinv = 0.006
+ eigbinv = 1.1
+ nigbinv = 3.0
+ aigc = 0.43
+ bigc = 0.054
+ cigc = 0.075
+ nigc = 1.0
+ aigsd = 0.43
+ bigsd = 0.054
+ cigsd = 0.075
+ dlcig = 0.0
+ poxedge = 1.0
+ pigcd = 1.0
+ ntox = 1.0
+ toxref = 1.16e-8
* Temperature Effects Parameters
+ kt1 = -0.414374908 lkt1 = 9.17809261094877e-8
+ kt2 = -0.019151
+ at = 237632.72 lat = -0.61187284072992
+ ute = -1.33741636 lute = 3.05936420364959e-7
+ ua1 = 3.0044e-9
+ ub1 = -3.7525e-18
+ uc1 = -5.9821e-11
+ kt1l = 0.0
+ prt = 0.0
* BSIM4 - High Speed RF Model Parameters
+ xrcrg1 = 12.0
+ xrcrg2 = 1.0
+ rbpb = 50.0
+ rbpd = 50.0
+ rbps = 50.0
+ rbdb = 50.0
+ rbsb = 50.0
+ gbmin = 1.0e-12
* BSIM4 - Flicker and Thermal Noise Parameters
+ noia = 2.6e+41
+ noib = 0.0
+ noic = 0.0
+ em = 4.1000000e+7
+ af = 1.0
+ ef = 0.89
+ kf = 0.0
+ ntnoi = 1.0
* BSIM4 - Layout Dependent Parasitic Model Parameters
+ dmcg = 0.0
+ dmcgt = 0.0
+ dmdg = 0.0
+ xgw = 0.0
+ xgl = 0.0
+ ngcon = 1.0
* Diode DC IV Parameters
* BSIM4 - Diode DC IV parameters
+ diomod = 1.0
+ njs = 1.0773
+ jss = 0.000375
+ jsws = 5.84e-11
+ xtis = 0.76
+ bvs = 12.636
+ xjbvs = 1.0
+ ijthsrev = 0.1
+ ijthsfwd = 0.1
* Diode and FET Capacitance Parameters
+ tpb = 0.001344
+ tpbsw = 0.00099005
+ tpbswg = 0.0
+ tcj = 0.00067434
+ tcjsw = 0.0002493
+ tcjswg = 0.0
+ cgdo = 3.19377688e-10
+ cgso = 3.19377688e-10
+ cgbo = 0.0
+ capmod = 2.0
+ xpart = 0.0
+ cgsl = 5.206e-11
+ cgdl = 5.206e-11
+ cf = 0.0
+ clc = 1.0e-7
+ cle = 0.6
+ dlc = 4.867e-8
+ dwc = 3.2175e-8
+ vfbcv = -1.0
+ acde = 0.4176
+ moin = 15.0
+ noff = 4.0
+ voffcv = -0.4104
+ ngate = 1.0e+23
+ lwc = 0.0
+ llc = 0.0
+ lwlc = 0.0
+ wlc = 0.0
+ wwc = 0.0
+ wwlc = 0.0
* BSIM4 - FET and Diode capacitance parameters
+ ckappas = 0.6
+ cjs = 0.00099811712
+ mjs = 0.295
+ pbs = 0.72468
+ cjsws = 1.06590204e-10
+ mjsws = 0.037586
+ pbsws = 0.29067
+ cjswgs = 6.7554e-11
+ mjswgs = 0.78692
+ pbswgs = 0.54958
* Stress Parameters
+ saref = 3.0e-6
+ sbref = 3.0e-6
+ wlod = 0
+ kvth0 = 0
+ lkvth0 = 0
+ wkvth0 = 0
+ pkvth0 = 0.0
+ llodvth = 0.0
+ wlodvth = 1.0
+ stk2 = 0.0
+ lodk2 = 1.0
+ lodeta0 = 1.0
+ ku0 = 0
+ lku0 = 0
+ wku0 = 0
+ pku0 = 0.0
+ llodku0 = 0.0
+ wlodku0 = 1.0
+ kvsat = 0
+ steta0 = 0.0
+ tku0 = 0.0
.model sky130_fd_pr__nfet_g5v0d10v5__model.3 nmos
* DC IV MOS Parameters
+ lmin = 2e-06 lmax = 4e-06 wmin = 2.0e-05 wmax = 1.0e-4
+ level = 54.0
+ tnom = 30.0
+ version = 4.5
+ toxm = 1.16e-8
+ xj = 1.5e-7
+ lln = 1.0
+ lwn = 1.0
+ wln = 1.0
+ wwn = 1.0
+ lint = 5.9182e-8
+ ll = 0.0
+ lw = 0.0
+ lwl = 0.0
+ wint = 5.3521e-8
+ wl = 0.0
+ ww = 0.0
+ wwl = 0.0
+ xl = 0.0
+ xw = 0.0
+ mobmod = 0.0
+ binunit = 2.0
+ dwg = -4.1292e-9
+ dwb = -1.6944e-9
* BSIM4 - Model Selectors
+ igcmod = 0.0
+ igbmod = 0.0
+ rgatemod = 0.0
+ rbodymod = 1.0
+ trnqsmod = 0.0
+ acnqsmod = 0.0
+ fnoimod = 1.0
+ tnoimod = 1.0
+ permod = 1.0
+ geomod = 0.0
+ rdsmod = 0.0
+ tempmod = 0.0
+ lintnoi = 0.0
+ vfbsdoff = 0.0
+ lambda = 0.0
+ vtl = 0.0
+ lc = 5.0e-9
+ xn = 3.0
+ rnoia = 0.794
+ rnoib = 0.38
+ tnoia = 7.50e+6
+ tnoib = 7.2e+6
* BSIM4 - Process Parameters
+ epsrox = 3.9
*(mismatch parameter sky130_fd_pr__nfet_g5v0d10v5__toxe_slope_spectre)
+ toxe = 1.2296e-08
+ dtox = 0.0
+ ndep = 1.7000000000000000e+17
+ nsd = 1.0e+20
+ rshg = 0.1
+ rsh = 1.0
* Threshold Voltage Parameters
*(mismatch parameter sky130_fd_pr__nfet_g5v0d10v5__vth0_slope_spectre)
+ vth0 = 0.793057696002 lvth0 = -9.08961150241902e-9
+ k1 = 0.88325
+ k2 = -0.0433694140834 lk2 = 1.60366456370324e-8
+ k3 = -0.884
+ dvt0 = 0.0
+ dvt1 = 0.53
+ dvt2 = -0.19251
+ dvt0w = 0.16
+ dvt1w = 6909100.0
+ dvt2w = -0.036016
+ w0 = 0.0
+ k3b = 0.43
* NEW BSIM4 Parameters for Level 54
+ phin = 0.0
+ lpe0 = 2.5e-8
+ lpeb = -2.182e-7
+ vbm = -3.0
+ dvtp0 = 0.0
+ dvtp1 = 0.0
* Mobility Parameters
+ vsat = 93650.9059 lvsat = 0.0272067519859476
+ ua = 1.078566180374e-10 lua = -4.78927576439021e-16 wua = -9.86076131526265e-32 pua = -5.64237288394698e-37
+ ub = 1.557827562126e-18 lub = 9.86721334139483e-25
+ uc = 6.6204e-11
+ rdsw = 724.62
+ prwb = 0.05626
+ prwg = 0.048
+ wr = 1.0
+ u0 = 0.04291014826 lu0 = 1.57032259784664e-9
+ a0 = 0.464123513818 la0 = 1.46623942491356e-6
+ keta = -0.039525786114 lketa = 5.43149023204025e-8
+ a1 = 0.0
+ a2 = 0.65972622
+ ags = 0.124583717364 lags = 1.62517433138072e-7
+ b0 = 3.2933e-8
+ b1 = 0.0
* BSIM4 - Mobility Parameters
+ eu = 1.67
+ rdswmin = 0.0
+ rdw = 0.0
+ rdwmin = 0.0
+ rsw = 0.0
+ rswmin = 0.0
* Subthreshold Current Parameters
*(mismatch parameter sky130_fd_pr__nfet_g5v0d10v5__voff_slope_spectre)
+ voff = -0.20613
*(mismatch parameter sky130_fd_pr__nfet_g5v0d10v5__nfactor_slope_spectre)
+ nfactor = 0.99638655686 lnfactor = -1.90885493463824e-7
+ up = 0.0
+ ud = 0.0
+ lp = 1.0
+ tvfbsdoff = 0.0
+ tvoff = 0.0
+ cit = -8.0e-4
+ cdsc = 0.0
+ cdscb = 0.0
+ cdscd = 0.0
+ eta0 = 0.032
+ etab = -0.01932
+ dsub = 0.504
* BSIM4 - Sub-threshold parameters
+ voffl = -4.2579486e-7
+ minv = 0.0
* Rout Parameters
+ pclm = 0.60454395626 lpclm = -7.50723759161242e-7
+ pdiblc1 = 0.21098
+ pdiblc2 = 2.0e-4
+ pdiblcb = -0.26831
+ drout = 0.36075
+ pscbe1 = 937310000.0
+ pscbe2 = 1.68e-6
+ pvag = 1.99
+ delta = 0.0246
+ alpha0 = 1.4467e-5
+ alpha1 = 0.0
+ beta0 = 23.807652176 lbeta0 = 1.08388778381601e-5
* BSIM4 - Rout Parameters
+ fprout = 10.125
+ pdits = 0.0
+ pditsl = 0.0
+ pditsd = 0.0
* BSIM4 - Gate Induced Drain Leakage Model Parameters
+ agidl = 5.06e-11
+ bgidl = 1058000000.0
+ cgidl = 4000.0
+ egidl = 0.8
* BSIM4 - Gate Leakage Current Parameters
+ aigbacc = 1.0
+ bigbacc = 0.0
+ cigbacc = 0.0
+ nigbacc = 1.0
+ aigbinv = 0.35
+ bigbinv = 0.03
+ cigbinv = 0.006
+ eigbinv = 1.1
+ nigbinv = 3.0
+ aigc = 0.43
+ bigc = 0.054
+ cigc = 0.075
+ nigc = 1.0
+ aigsd = 0.43
+ bigsd = 0.054
+ cigsd = 0.075
+ dlcig = 0.0
+ poxedge = 1.0
+ pigcd = 1.0
+ ntox = 1.0
+ toxref = 1.16e-8
* Temperature Effects Parameters
+ kt1 = -0.407664724 lkt1 = 6.57344343284642e-8
+ kt2 = -0.019151
+ at = 140212.352 lat = -0.233722433167872
+ ute = -1.22096728 lute = -1.4607652072992e-7
+ ua1 = 3.0044e-9
+ ub1 = -3.7525e-18
+ uc1 = -5.9821e-11
+ kt1l = 0.0
+ prt = 0.0
* BSIM4 - High Speed RF Model Parameters
+ xrcrg1 = 12.0
+ xrcrg2 = 1.0
+ rbpb = 50.0
+ rbpd = 50.0
+ rbps = 50.0
+ rbdb = 50.0
+ rbsb = 50.0
+ gbmin = 1.0e-12
* BSIM4 - Flicker and Thermal Noise Parameters
+ noia = 2.6e+41
+ noib = 0.0
+ noic = 0.0
+ em = 4.1000000e+7
+ af = 1.0
+ ef = 0.89
+ kf = 0.0
+ ntnoi = 1.0
* BSIM4 - Layout Dependent Parasitic Model Parameters
+ dmcg = 0.0
+ dmcgt = 0.0
+ dmdg = 0.0
+ xgw = 0.0
+ xgl = 0.0
+ ngcon = 1.0
* Diode DC IV Parameters
* BSIM4 - Diode DC IV parameters
+ diomod = 1.0
+ njs = 1.0773
+ jss = 0.000375
+ jsws = 5.84e-11
+ xtis = 0.76
+ bvs = 12.636
+ xjbvs = 1.0
+ ijthsrev = 0.1
+ ijthsfwd = 0.1
* Diode and FET Capacitance Parameters
+ tpb = 0.001344
+ tpbsw = 0.00099005
+ tpbswg = 0.0
+ tcj = 0.00067434
+ tcjsw = 0.0002493
+ tcjswg = 0.0
+ cgdo = 3.19377688e-10
+ cgso = 3.19377688e-10
+ cgbo = 0.0
+ capmod = 2.0
+ xpart = 0.0
+ cgsl = 5.206e-11
+ cgdl = 5.206e-11
+ cf = 0.0
+ clc = 1.0e-7
+ cle = 0.6
+ dlc = 4.867e-8
+ dwc = 3.2175e-8
+ vfbcv = -1.0
+ acde = 0.4176
+ moin = 15.0
+ noff = 4.0
+ voffcv = -0.4104
+ ngate = 1.0e+23
+ lwc = 0.0
+ llc = 0.0
+ lwlc = 0.0
+ wlc = 0.0
+ wwc = 0.0
+ wwlc = 0.0
* BSIM4 - FET and Diode capacitance parameters
+ ckappas = 0.6
+ cjs = 0.00099811712
+ mjs = 0.295
+ pbs = 0.72468
+ cjsws = 1.06590204e-10
+ mjsws = 0.037586
+ pbsws = 0.29067
+ cjswgs = 6.7554e-11
+ mjswgs = 0.78692
+ pbswgs = 0.54958
* Stress Parameters
+ saref = 3.0e-6
+ sbref = 3.0e-6
+ wlod = 0
+ kvth0 = 0
+ lkvth0 = 0
+ wkvth0 = 0
+ pkvth0 = 0.0
+ llodvth = 0.0
+ wlodvth = 1.0
+ stk2 = 0.0
+ lodk2 = 1.0
+ lodeta0 = 1.0
+ ku0 = 0
+ lku0 = 0
+ wku0 = 0
+ pku0 = 0.0
+ llodku0 = 0.0
+ wlodku0 = 1.0
+ kvsat = 0
+ steta0 = 0.0
+ tku0 = 0.0
.model sky130_fd_pr__nfet_g5v0d10v5__model.4 nmos
* DC IV MOS Parameters
+ lmin = 1e-06 lmax = 2e-06 wmin = 2.0e-05 wmax = 1.0e-4
+ level = 54.0
+ tnom = 30.0
+ version = 4.5
+ toxm = 1.16e-8
+ xj = 1.5e-7
+ lln = 1.0
+ lwn = 1.0
+ wln = 1.0
+ wwn = 1.0
+ lint = 5.9182e-8
+ ll = 0.0
+ lw = 0.0
+ lwl = 0.0
+ wint = 5.3521e-8
+ wl = 0.0
+ ww = 0.0
+ wwl = 0.0
+ xl = 0.0
+ xw = 0.0
+ mobmod = 0.0
+ binunit = 2.0
+ dwg = -4.1292e-9
+ dwb = -1.6944e-9
* BSIM4 - Model Selectors
+ igcmod = 0.0
+ igbmod = 0.0
+ rgatemod = 0.0
+ rbodymod = 1.0
+ trnqsmod = 0.0
+ acnqsmod = 0.0
+ fnoimod = 1.0
+ tnoimod = 1.0
+ permod = 1.0
+ geomod = 0.0
+ rdsmod = 0.0
+ tempmod = 0.0
+ lintnoi = 0.0
+ vfbsdoff = 0.0
+ lambda = 0.0
+ vtl = 0.0
+ lc = 5.0e-9
+ xn = 3.0
+ rnoia = 0.794
+ rnoib = 0.38
+ tnoia = 7.50e+6
+ tnoib = 7.2e+6
* BSIM4 - Process Parameters
+ epsrox = 3.9
*(mismatch parameter sky130_fd_pr__nfet_g5v0d10v5__toxe_slope_spectre)
+ toxe = 1.2296e-08
+ dtox = 0.0
+ ndep = 1.7000000000000000e+17
+ nsd = 1.0e+20
+ rshg = 0.1
+ rsh = 1.0
* Threshold Voltage Parameters
*(mismatch parameter sky130_fd_pr__nfet_g5v0d10v5__vth0_slope_spectre)
+ vth0 = 0.767943200548 lvth0 = 3.81667272656634e-8
+ k1 = 0.88325
+ k2 = -0.0416548695192 lk2 = 1.28104968614294e-08 wk2 = -2.11758236813575e-22
+ k3 = -0.884
+ dvt0 = 0.0
+ dvt1 = 0.53
+ dvt2 = -0.19251
+ dvt0w = 0.16
+ dvt1w = 6909100.0
+ dvt2w = -0.036016
+ w0 = 0.0
+ k3b = 0.43
* NEW BSIM4 Parameters for Level 54
+ phin = 0.0
+ lpe0 = 2.5e-8
+ lpeb = -2.182e-7
+ vbm = -3.0
+ dvtp0 = 0.0
+ dvtp1 = 0.0
* Mobility Parameters
+ vsat = 120367.385308 lvsat = -0.0230639374614039
+ ua = -1.423282782092e-10 lua = -8.17066900515378e-18
+ ub = 1.764175457908e-18 lub = 5.98449704911823e-25
+ uc = 6.6204e-11
+ rdsw = 724.62
+ prwb = 0.05626
+ prwg = 0.048
+ wr = 1.0
+ u0 = 0.0423086912832 lu0 = 2.70204569784469e-9
+ a0 = 1.751557912936 la0 = -9.56243488105244e-7
+ keta = 0.00389404708800001 lketa = -2.7385418946476e-8
+ a1 = 0.0
+ a2 = 0.65972622
+ ags = 0.111605965704 lags = 1.86936837860588e-7
+ b0 = 3.2933e-8
+ b1 = 0.0
* BSIM4 - Mobility Parameters
+ eu = 1.67
+ rdswmin = 0.0
+ rdw = 0.0
+ rdwmin = 0.0
+ rsw = 0.0
+ rswmin = 0.0
* Subthreshold Current Parameters
*(mismatch parameter sky130_fd_pr__nfet_g5v0d10v5__voff_slope_spectre)
+ voff = -0.20613
*(mismatch parameter sky130_fd_pr__nfet_g5v0d10v5__nfactor_slope_spectre)
+ nfactor = 0.89703829368 lnfactor = -3.9482249268604e-9
+ up = 0.0
+ ud = 0.0
+ lp = 1.0
+ tvfbsdoff = 0.0
+ tvoff = 0.0
+ cit = -8.0e-4
+ cdsc = 0.0
+ cdscb = 0.0
+ cdscd = 0.0
+ eta0 = 0.032
+ etab = -0.01932
+ dsub = 0.504
* BSIM4 - Sub-threshold parameters
+ voffl = -4.2579486e-7
+ minv = 0.0
* Rout Parameters
+ pclm = 0.09229740672 lpclm = 2.13137789329006e-7
+ pdiblc1 = 0.21098
+ pdiblc2 = 2.0e-4
+ pdiblcb = -0.26831
+ drout = 0.36075
+ pscbe1 = 937310000.0
+ pscbe2 = 1.68e-6
+ pvag = 1.99
+ delta = 0.0246
+ alpha0 = 1.4467e-5
+ alpha1 = 0.0
+ beta0 = 26.983043248 lbeta0 = 4.86394768300626e-6
* BSIM4 - Rout Parameters
+ fprout = 10.125
+ pdits = 0.0
+ pditsl = 0.0
+ pditsd = 0.0
* BSIM4 - Gate Induced Drain Leakage Model Parameters
+ agidl = 5.06e-11
+ bgidl = 1058000000.0
+ cgidl = 4000.0
+ egidl = 0.8
* BSIM4 - Gate Leakage Current Parameters
+ aigbacc = 1.0
+ bigbacc = 0.0
+ cigbacc = 0.0
+ nigbacc = 1.0
+ aigbinv = 0.35
+ bigbinv = 0.03
+ cigbinv = 0.006
+ eigbinv = 1.1
+ nigbinv = 3.0
+ aigc = 0.43
+ bigc = 0.054
+ cigc = 0.075
+ nigc = 1.0
+ aigsd = 0.43
+ bigsd = 0.054
+ cigsd = 0.075
+ dlcig = 0.0
+ poxedge = 1.0
+ pigcd = 1.0
+ ntox = 1.0
+ toxref = 1.16e-8
* Temperature Effects Parameters
+ kt1 = -0.38154636 lkt1 = 1.65891803649599e-8
+ kt2 = -0.019151
+ at = 8946.91199999999 lat = 0.013271344291968
+ ute = -1.2986
+ ua1 = 3.0044e-9
+ ub1 = -4.0171671272e-18 lub1 = 4.98007194556099e-25
+ uc1 = -5.9821e-11
+ kt1l = 0.0
+ prt = 0.0
* BSIM4 - High Speed RF Model Parameters
+ xrcrg1 = 12.0
+ xrcrg2 = 1.0
+ rbpb = 50.0
+ rbpd = 50.0
+ rbps = 50.0
+ rbdb = 50.0
+ rbsb = 50.0
+ gbmin = 1.0e-12
* BSIM4 - Flicker and Thermal Noise Parameters
+ noia = 2.6e+41
+ noib = 0.0
+ noic = 0.0
+ em = 4.1000000e+7
+ af = 1.0
+ ef = 0.89
+ kf = 0.0
+ ntnoi = 1.0
* BSIM4 - Layout Dependent Parasitic Model Parameters
+ dmcg = 0.0
+ dmcgt = 0.0
+ dmdg = 0.0
+ xgw = 0.0
+ xgl = 0.0
+ ngcon = 1.0
* Diode DC IV Parameters
* BSIM4 - Diode DC IV parameters
+ diomod = 1.0
+ njs = 1.0773
+ jss = 0.000375
+ jsws = 5.84e-11
+ xtis = 0.76
+ bvs = 12.636
+ xjbvs = 1.0
+ ijthsrev = 0.1
+ ijthsfwd = 0.1
* Diode and FET Capacitance Parameters
+ tpb = 0.001344
+ tpbsw = 0.00099005
+ tpbswg = 0.0
+ tcj = 0.00067434
+ tcjsw = 0.0002493
+ tcjswg = 0.0
+ cgdo = 3.19377688e-10
+ cgso = 3.19377688e-10
+ cgbo = 0.0
+ capmod = 2.0
+ xpart = 0.0
+ cgsl = 5.206e-11
+ cgdl = 5.206e-11
+ cf = 0.0
+ clc = 1.0e-7
+ cle = 0.6
+ dlc = 4.867e-8
+ dwc = 3.2175e-8
+ vfbcv = -1.0
+ acde = 0.4176
+ moin = 15.0
+ noff = 4.0
+ voffcv = -0.4104
+ ngate = 1.0e+23
+ lwc = 0.0
+ llc = 0.0
+ lwlc = 0.0
+ wlc = 0.0
+ wwc = 0.0
+ wwlc = 0.0
* BSIM4 - FET and Diode capacitance parameters
+ ckappas = 0.6
+ cjs = 0.00099811712
+ mjs = 0.295
+ pbs = 0.72468
+ cjsws = 1.06590204e-10
+ mjsws = 0.037586
+ pbsws = 0.29067
+ cjswgs = 6.7554e-11
+ mjswgs = 0.78692
+ pbswgs = 0.54958
* Stress Parameters
+ saref = 2.81e-6
+ sbref = 2.81e-6
+ wlod = 0
+ kvth0 = 0
+ lkvth0 = 0
+ wkvth0 = 0
+ pkvth0 = 0.0
+ llodvth = 0.0
+ wlodvth = 1.0
+ stk2 = 0.0
+ lodk2 = 1.0
+ lodeta0 = 1.0
+ ku0 = 0
+ lku0 = 0
+ wku0 = 0
+ pku0 = 0.0
+ llodku0 = 0.0
+ wlodku0 = 1.0
+ kvsat = 0
+ steta0 = 0.0
+ tku0 = 0.0
.model sky130_fd_pr__nfet_g5v0d10v5__model.5 nmos
* DC IV MOS Parameters
+ lmin = 8.0e-07 lmax = 1e-06 wmin = 2.0e-05 wmax = 1.0e-4
+ level = 54.0
+ tnom = 30.0
+ version = 4.5
+ toxm = 1.16e-8
+ xj = 1.5e-7
+ lln = 1.0
+ lwn = 1.0
+ wln = 1.0
+ wwn = 1.0
+ lint = 5.9182e-8
+ ll = 0.0
+ lw = 0.0
+ lwl = 0.0
+ wint = 5.3521e-8
+ wl = 0.0
+ ww = 0.0
+ wwl = 0.0
+ xl = 0.0
+ xw = 0.0
+ mobmod = 0.0
+ binunit = 2.0
+ dwg = -4.1292e-9
+ dwb = -1.6944e-9
* BSIM4 - Model Selectors
+ igcmod = 0.0
+ igbmod = 0.0
+ rgatemod = 0.0
+ rbodymod = 1.0
+ trnqsmod = 0.0
+ acnqsmod = 0.0
+ fnoimod = 1.0
+ tnoimod = 1.0
+ permod = 1.0
+ geomod = 0.0
+ rdsmod = 0.0
+ tempmod = 0.0
+ lintnoi = 0.0
+ vfbsdoff = 0.0
+ lambda = 0.0
+ vtl = 0.0
+ lc = 5.0e-9
+ xn = 3.0
+ rnoia = 0.794
+ rnoib = 0.38
+ tnoia = 7.50e+6
+ tnoib = 7.2e+6
* BSIM4 - Process Parameters
+ epsrox = 3.9
*(mismatch parameter sky130_fd_pr__nfet_g5v0d10v5__toxe_slope_spectre)
+ toxe = 1.2296e-08
+ dtox = 0.0
+ ndep = 1.7000000000000000e+17
+ nsd = 1.0e+20
+ rshg = 0.1
+ rsh = 1.0
* Threshold Voltage Parameters
*(mismatch parameter sky130_fd_pr__nfet_g5v0d10v5__vth0_slope_spectre)
+ vth0 = 0.77380195906 lvth0 = 3.30014348461777e-8
+ k1 = 0.88325
+ k2 = -0.037465940574 lk2 = 9.11738630189907e-9
+ k3 = -0.884
+ dvt0 = 0.0
+ dvt1 = 0.53
+ dvt2 = -0.19251
+ dvt0w = 0.16
+ dvt1w = 6909100.0
+ dvt2w = -0.036016
+ w0 = 0.0
+ k3b = 0.43
* NEW BSIM4 Parameters for Level 54
+ phin = 0.0
+ lpe0 = 2.5e-8
+ lpeb = -2.182e-7
+ vbm = -3.0
+ dvtp0 = 0.0
+ dvtp1 = 0.0
* Mobility Parameters
+ vsat = 52828.968256 lvsat = 0.0364803623946532
+ ua = -1.65085135622e-10 lua = 1.18925957368376e-17
+ ub = 2.9580482434e-18 lub = -4.54111522198202e-25
+ uc = 6.6204e-11
+ rdsw = 724.62
+ prwb = 0.05626
+ prwg = 0.048
+ wr = 1.0
+ u0 = 0.04676425556352 lu0 = -1.22614017199951e-9
+ a0 = -0.88469447588 la0 = 1.36797152296094e-6
+ keta = -0.08343023544 lketa = 4.96028122043799e-8
+ a1 = 0.0
+ a2 = 0.65972622
+ ags = 0.8805025302 lags = -4.90950053675407e-7
+ b0 = 3.2933e-8
+ b1 = 0.0
* BSIM4 - Mobility Parameters
+ eu = 1.67
+ rdswmin = 0.0
+ rdw = 0.0
+ rdwmin = 0.0
+ rsw = 0.0
+ rswmin = 0.0
* Subthreshold Current Parameters
*(mismatch parameter sky130_fd_pr__nfet_g5v0d10v5__voff_slope_spectre)
+ voff = -0.20613
*(mismatch parameter sky130_fd_pr__nfet_g5v0d10v5__nfactor_slope_spectre)
+ nfactor = 0.978786954 lnfactor = -7.60207868167443e-8
+ up = 0.0
+ ud = 0.0
+ lp = 1.0
+ tvfbsdoff = 0.0
+ tvoff = 0.0
+ cit = -8.0e-4
+ cdsc = 0.0
+ cdscb = 0.0
+ cdscd = 0.0
+ eta0 = 0.032
+ etab = -0.01932
+ dsub = 0.504
* BSIM4 - Sub-threshold parameters
+ voffl = -4.2579486e-7
+ minv = 0.0
* Rout Parameters
+ pclm = -2.030374875 lpclm = 2.0845620890955e-06 ppclm = -3.23117426778526e-27
+ pdiblc1 = 0.21098
+ pdiblc2 = 2.0e-4
+ pdiblcb = -0.26831
+ drout = 0.36075
+ pscbe1 = 937310000.0
+ pscbe2 = 1.68e-6
+ pvag = 1.99
+ delta = 0.0246
+ alpha0 = 4.60713526000001e-06 lalpha0 = 8.69281170991464e-12
+ alpha1 = 0.0
+ beta0 = 22.33680724 lbeta0 = 8.96023661215535e-6
* BSIM4 - Rout Parameters
+ fprout = 10.125
+ pdits = 0.0
+ pditsl = 0.0
+ pditsd = 0.0
* BSIM4 - Gate Induced Drain Leakage Model Parameters
+ agidl = 5.06e-11
+ bgidl = 1058000000.0
+ cgidl = 4000.0
+ egidl = 0.8
* BSIM4 - Gate Leakage Current Parameters