.model sky130_fd_pr__nfet_01v8__model.0 nmos
* Model Flag Parameters
+ lmin = 2.0e-05 lmax = 0.0001 wmin = 7.0e-06 wmax = 0.0001
+ level = 54.0
+ version = 4.5
+ binunit = 2.0
+ mobmod = 0.0
+ capmod = 2.0
+ igcmod = 0.0
+ igbmod = 0.0
+ geomod = 0.0
+ diomod = 1.0
+ rdsmod = 0.0
+ rbodymod = 1.0
+ rgatemod = 0.0
+ permod = 1.0
+ acnqsmod = 0.0
+ trnqsmod = 0.0
+ fnoimod = 1.0
+ tnoimod = 1.0
+ tempmod = 0.0
* Process Parameters
*(mismatch parameter sky130_fd_pr__nfet_01v8__toxe_slope_spectre)
+ toxe = 3.996598e-09
+ toxm = 4.148e-9
+ dtox = 0.0
+ epsrox = 3.9
+ xj = 1.5e-7
+ ngate = 1.0e+23
+ ndep = 1.7e+17
+ nsd = 1.0e+20
+ rsh = 1.0
+ rshg = 0.1
* Basic Model Parameters
+ wint = -6.60999999999998e-10
+ lint = 2.40595e-8
*(mismatch parameter sky130_fd_pr__nfet_01v8__vth0_slope_spectre)
+ vth0 = 0.52129956
+ k1 = 0.54086565
+ k2 = -0.026812991
+ k3 = 2.0
+ k3b = 0.54
+ w0 = 0.0
+ dvt0 = 0.0
+ dvt1 = 0.53
+ dvt2 = -0.032
+ dvt0w = -3.58
+ dvt1w = 1670600.0
+ dvt2w = 0.068
+ dsub = 0.56
+ minv = 0.0
+ voffl = 5.8197729e-9
+ lpe0 = 1.0325e-7
+ lpeb = -7.082e-8
+ vbm = -3.0
+ dvtp0 = 0.0
+ dvtp1 = 0.0
+ phin = 0.0
+ cdsc = 0.0
+ cdscb = 0.0
+ cdscd = 0.0054
+ cit = 0.0
*(mismatch parameter sky130_fd_pr__nfet_01v8__voff_slope_spectre)
+ voff = -0.1052686
+ nfactor = 2.58189
+ eta0 = 0.08
+ etab = -0.07
+ u0 = 0.03237873
+ ua = -7.5961167e-10
+ ub = 1.7358267e-18
+ uc = 4.9242e-11
+ ud = 0.0
+ up = 0.0
+ lp = 1.0
+ eu = 1.67
+ vtl = 0.0
+ xn = 3.0
+ vsat = 80000.0
+ a0 = 1.296936
+ ags = 0.436469
+ a1 = 0.0
+ a2 = 0.42385546
+ b0 = 0.0
+ b1 = 2.1073424e-24
+ keta = -0.0087946
+ dwg = 0.0
+ dwb = 0.0
+ pclm = 0.026316
+ pdiblc1 = 0.39
+ pdiblc2 = 0.0030734587
+ pdiblcb = -0.025
+ drout = 0.56
+ pscbe1 = 754674160.0
+ pscbe2 = 1.0e-12
+ pvag = 0.0
+ delta = 0.01
+ fprout = 0.0
+ pdits = 0.0
+ pditsl = 0.0
+ pditsd = 0.0
+ lambda = 0.0
+ lc = 5.0e-9
* Parameters FOR Asymmetric AND Bias-Dependent RDS Model
+ rdsw = 65.968
+ rsw = 0.0
+ rdw = 0.0
+ rdswmin = 0.0
+ rdwmin = 0.0
+ rswmin = 0.0
+ prwb = 0.0
+ prwg = 0.021507
+ wr = 1.0
* Impact Ionization Current Model Parameters
+ alpha0 = 3.0e-8
+ alpha1 = 0.85
+ beta0 = 13.86
* Gidl Induced Drain Leakage Model Parameters
+ agidl = 0.0
+ bgidl = 2300000000.0
+ cgidl = 0.5
+ egidl = 0.8
* Gate Dielectric Tunneling Current Model Parameters
+ toxref = 4.148e-9
+ dlcig = 0.0
+ aigbacc = 1.0
+ bigbacc = 0.0
+ cigbacc = 0.0
+ nigbacc = 0.0
+ aigbinv = 0.35
+ bigbinv = 0.03
+ cigbinv = 0.006
+ eigbinv = 1.1
+ nigbinv = 0.0
+ aigc = 0.43
+ bigc = 0.054
+ cigc = 0.075
+ aigsd = 0.43
+ bigsd = 0.054
+ cigsd = 0.075
+ nigc = 0.0
+ poxedge = 1.0
+ pigcd = 1.0
+ ntox = 1.0
+ vfbsdoff = 0.0
* Charge AND Capacitance Model Parameters
+ dlc = 1.85814e-8
+ dwc = -2.252e-8
+ xpart = 0.0
+ cgso = 2.4133302e-10
+ cgdo = 2.4133302e-10
+ cgbo = 1.0e-13
+ cgdl = 0.0
+ cgsl = 0.0
+ clc = 1.0e-7
+ cle = 0.6
+ cf = 1.4067e-12
+ ckappas = 0.6
+ vfbcv = -1.0
+ acde = 0.4
+ moin = 6.9
+ noff = 3.4037
+ voffcv = -0.17287
* High-Speed/RF Model Parameters
+ xrcrg1 = 12.0
+ xrcrg2 = 1.0
+ rbpb = 50.0
+ rbpd = 50.0
+ rbps = 50.0
+ rbdb = 50.0
+ rbsb = 50.0
+ gbmin = 1.0e-12
* Flicker AND Thermal Noise Model Parameters
+ ef = 0.84
+ noia = 2.5e+42
+ noib = 0.0
+ noic = 0.0
+ em = 41000000.0
+ ntnoi = 1.0
+ lintnoi = -1.0e-7
+ af = 1.0
+ kf = 0.0
+ tnoia = 15000000.0
+ tnoib = 9900000.0
+ rnoia = 0.94
+ rnoib = 0.26
* Layout-Dependent Parasitics Model Parameters
+ xl = 0.0
+ xw = 0.0
+ dmcg = 0.0
+ dmdg = 0.0
+ dmcgt = 0.0
+ xgw = 0.0
+ xgl = 0.0
+ ngcon = 1.0
* Asymmetric Source/Drain Junction Diode Model Parameters
+ jss = 0.00275
+ jsws = 6.0e-10
+ ijthsfwd = 0.1
+ ijthsrev = 0.1
+ bvs = 11.7
+ xjbvs = 1.0
+ pbs = 0.729
+ cjs = 0.001131080901
+ mjs = 0.44
+ pbsws = 0.2
+ cjsws = 3.101378147e-11
+ mjsws = 0.0009
+ pbswgs = 0.95578
+ cjswgs = 2.011274009e-10
+ mjswgs = 0.8
* Temperature Dependence Parameters
+ tnom = 30.0
+ kt1 = -0.31303
+ kt2 = -0.045313337
+ at = 140000.0
+ ute = -1.8134
+ ua1 = 3.7602e-10
+ ub1 = -6.3962e-19
+ uc1 = 1.5829713e-11
+ kt1l = 0.0
+ prt = 0.0
+ tvoff = 0.0
+ njs = 1.2928
+ tpb = 0.0012287
+ tcj = 0.000792
+ tpbsw = 0.0
+ tcjsw = 1.0e-5
+ tpbswg = 0.0
+ tcjswg = 0.0
+ xtis = 2.0
+ tvfbsdoff = 0.0
* DW AND DL Parameters
+ ll = 0.0
+ wl = 0.0
+ lln = 1.0
+ wln = 1.0
+ lw = 0.0
+ ww = 0.0
+ lwn = 1.0
+ wwn = 1.0
+ lwl = 0.0
+ wwl = 0.0
+ llc = 0.0
+ wlc = 0.0
+ lwc = 0.0
+ wwc = 0.0
+ lwlc = 0.0
+ wwlc = 0.0
* Stress Parameters
+ saref = 3.0e-6
+ sbref = 3.0e-6
+ kvth0 = 9.8e-9
+ lkvth0 = 0.0
+ wkvth0 = 2.0e-7
+ pkvth0 = 0.0
+ llodvth = 0.0
+ wlodvth = 1.0
+ wlod = 0.0
+ stk2 = 0.0
+ lodk2 = 1.0
+ lodeta0 = 1.0
+ ku0 = -2.7e-8
+ lku0 = 0.0
+ wku0 = 0.0
+ pku0 = 0.0
+ tku0 = 0.0
+ llodku0 = 0.0
+ wlodku0 = 1.0
+ kvsat = 0.2
+ steta0 = 0.0
* Well Proximity Effect Parameters
.model sky130_fd_pr__nfet_01v8__model.1 nmos
* Model Flag Parameters
+ lmin = 8.0e-06 lmax = 2.0e-05 wmin = 7.0e-06 wmax = 0.0001
+ level = 54.0
+ version = 4.5
+ binunit = 2.0
+ mobmod = 0.0
+ capmod = 2.0
+ igcmod = 0.0
+ igbmod = 0.0
+ geomod = 0.0
+ diomod = 1.0
+ rdsmod = 0.0
+ rbodymod = 1.0
+ rgatemod = 0.0
+ permod = 1.0
+ acnqsmod = 0.0
+ trnqsmod = 0.0
+ fnoimod = 1.0
+ tnoimod = 1.0
+ tempmod = 0.0
* Process Parameters
*(mismatch parameter sky130_fd_pr__nfet_01v8__toxe_slope_spectre)
+ toxe = 3.996598e-09
+ toxm = 4.148e-9
+ dtox = 0.0
+ epsrox = 3.9
+ xj = 1.5e-7
+ ngate = 1.0e+23
+ ndep = 1.7e+17
+ nsd = 1.0e+20
+ rsh = 1.0
+ rshg = 0.1
* Basic Model Parameters
+ wint = -6.60999999999998e-10
+ lint = 2.40595e-8
*(mismatch parameter sky130_fd_pr__nfet_01v8__vth0_slope_spectre)
+ vth0 = 0.52129956
+ k1 = 0.54086565
+ k2 = -0.026812991
+ k3 = 2.0
+ k3b = 0.54
+ w0 = 0.0
+ dvt0 = 0.0
+ dvt1 = 0.53
+ dvt2 = -0.032
+ dvt0w = -3.58
+ dvt1w = 1670600.0
+ dvt2w = 0.068
+ dsub = 0.56
+ minv = 0.0
+ voffl = 5.8197729e-9
+ lpe0 = 1.0325e-7
+ lpeb = -7.082e-8
+ vbm = -3.0
+ dvtp0 = 0.0
+ dvtp1 = 0.0
+ phin = 0.0
+ cdsc = 0.0
+ cdscb = 0.0
+ cdscd = 0.0054
+ cit = 0.0
*(mismatch parameter sky130_fd_pr__nfet_01v8__voff_slope_spectre)
+ voff = -0.1052686
+ nfactor = 2.58189
+ eta0 = 0.08
+ etab = -0.07
+ u0 = 0.03237873
+ ua = -7.5961167e-10
+ ub = 1.7358267e-18
+ uc = 4.9242e-11
+ ud = 0.0
+ up = 0.0
+ lp = 1.0
+ eu = 1.67
+ vtl = 0.0
+ xn = 3.0
+ vsat = 80000.0
+ a0 = 1.296936
+ ags = 0.436469
+ a1 = 0.0
+ a2 = 0.42385546
+ b0 = 0.0
+ b1 = 2.1073424e-24
+ keta = -0.0087946
+ dwg = 0.0
+ dwb = 0.0
+ pclm = 0.026316
+ pdiblc1 = 0.39
+ pdiblc2 = 0.0030734587
+ pdiblcb = -0.025
+ drout = 0.56
+ pscbe1 = 754674160.0
+ pscbe2 = 1.0e-12
+ pvag = 0.0
+ delta = 0.01
+ fprout = 0.0
+ pdits = 0.0
+ pditsl = 0.0
+ pditsd = 0.0
+ lambda = 0.0
+ lc = 5.0e-9
* Parameters FOR Asymmetric AND Bias-Dependent RDS Model
+ rdsw = 65.968
+ rsw = 0.0
+ rdw = 0.0
+ rdswmin = 0.0
+ rdwmin = 0.0
+ rswmin = 0.0
+ prwb = 0.0
+ prwg = 0.021507
+ wr = 1.0
* Impact Ionization Current Model Parameters
+ alpha0 = 3.0e-8
+ alpha1 = 0.85
+ beta0 = 13.86
* Gidl Induced Drain Leakage Model Parameters
+ agidl = 0.0
+ bgidl = 2300000000.0
+ cgidl = 0.5
+ egidl = 0.8
* Gate Dielectric Tunneling Current Model Parameters
+ toxref = 4.148e-9
+ dlcig = 0.0
+ aigbacc = 1.0
+ bigbacc = 0.0
+ cigbacc = 0.0
+ nigbacc = 0.0
+ aigbinv = 0.35
+ bigbinv = 0.03
+ cigbinv = 0.006
+ eigbinv = 1.1
+ nigbinv = 0.0
+ aigc = 0.43
+ bigc = 0.054
+ cigc = 0.075
+ aigsd = 0.43
+ bigsd = 0.054
+ cigsd = 0.075
+ nigc = 0.0
+ poxedge = 1.0
+ pigcd = 1.0
+ ntox = 1.0
+ vfbsdoff = 0.0
* Charge AND Capacitance Model Parameters
+ dlc = 1.85814e-8
+ dwc = -2.252e-8
+ xpart = 0.0
+ cgso = 2.4133302e-10
+ cgdo = 2.4133302e-10
+ cgbo = 1.0e-13
+ cgdl = 0.0
+ cgsl = 0.0
+ clc = 1.0e-7
+ cle = 0.6
+ cf = 1.4067e-12
+ ckappas = 0.6
+ vfbcv = -1.0
+ acde = 0.4
+ moin = 6.9
+ noff = 3.4037
+ voffcv = -0.17287
* High-Speed/RF Model Parameters
+ xrcrg1 = 12.0
+ xrcrg2 = 1.0
+ rbpb = 50.0
+ rbpd = 50.0
+ rbps = 50.0
+ rbdb = 50.0
+ rbsb = 50.0
+ gbmin = 1.0e-12
* Flicker AND Thermal Noise Model Parameters
+ ef = 0.84
+ noia = 2.5e+42
+ noib = 0.0
+ noic = 0.0
+ em = 41000000.0
+ ntnoi = 1.0
+ lintnoi = -1.0e-7
+ af = 1.0
+ kf = 0.0
+ tnoia = 15000000.0
+ tnoib = 9900000.0
+ rnoia = 0.94
+ rnoib = 0.26
* Layout-Dependent Parasitics Model Parameters
+ xl = 0.0
+ xw = 0.0
+ dmcg = 0.0
+ dmdg = 0.0
+ dmcgt = 0.0
+ xgw = 0.0
+ xgl = 0.0
+ ngcon = 1.0
* Asymmetric Source/Drain Junction Diode Model Parameters
+ jss = 0.00275
+ jsws = 6.0e-10
+ ijthsfwd = 0.1
+ ijthsrev = 0.1
+ bvs = 11.7
+ xjbvs = 1.0
+ pbs = 0.729
+ cjs = 0.001131080901
+ mjs = 0.44
+ pbsws = 0.2
+ cjsws = 3.101378147e-11
+ mjsws = 0.0009
+ pbswgs = 0.95578
+ cjswgs = 2.011274009e-10
+ mjswgs = 0.8
* Temperature Dependence Parameters
+ tnom = 30.0
+ kt1 = -0.31303
+ kt2 = -0.045313337
+ at = 140000.0
+ ute = -1.8134
+ ua1 = 3.7602e-10
+ ub1 = -6.3962e-19
+ uc1 = 1.5829713e-11
+ kt1l = 0.0
+ prt = 0.0
+ tvoff = 0.0
+ njs = 1.2928
+ tpb = 0.0012287
+ tcj = 0.000792
+ tpbsw = 0.0
+ tcjsw = 1.0e-5
+ tpbswg = 0.0
+ tcjswg = 0.0
+ xtis = 2.0
+ tvfbsdoff = 0.0
* DW AND DL Parameters
+ ll = 0.0
+ wl = 0.0
+ lln = 1.0
+ wln = 1.0
+ lw = 0.0
+ ww = 0.0
+ lwn = 1.0
+ wwn = 1.0
+ lwl = 0.0
+ wwl = 0.0
+ llc = 0.0
+ wlc = 0.0
+ lwc = 0.0
+ wwc = 0.0
+ lwlc = 0.0
+ wwlc = 0.0
* Stress Parameters
+ saref = 3.0e-6
+ sbref = 3.0e-6
+ kvth0 = 9.8e-9
+ lkvth0 = 0.0
+ wkvth0 = 2.0e-7
+ pkvth0 = 0.0
+ llodvth = 0.0
+ wlodvth = 1.0
+ wlod = 0.0
+ stk2 = 0.0
+ lodk2 = 1.0
+ lodeta0 = 1.0
+ ku0 = -2.7e-8
+ lku0 = 0.0
+ wku0 = 0.0
+ pku0 = 0.0
+ tku0 = 0.0
+ llodku0 = 0.0
+ wlodku0 = 1.0
+ kvsat = 0.2
+ steta0 = 0.0
* Well Proximity Effect Parameters
.model sky130_fd_pr__nfet_01v8__model.2 nmos
* Model Flag Parameters
+ lmin = 4.0e-06 lmax = 8.0e-06 wmin = 7.0e-06 wmax = 0.0001
+ level = 54.0
+ version = 4.5
+ binunit = 2.0
+ mobmod = 0.0
+ capmod = 2.0
+ igcmod = 0.0
+ igbmod = 0.0
+ geomod = 0.0
+ diomod = 1.0
+ rdsmod = 0.0
+ rbodymod = 1.0
+ rgatemod = 0.0
+ permod = 1.0
+ acnqsmod = 0.0
+ trnqsmod = 0.0
+ fnoimod = 1.0
+ tnoimod = 1.0
+ tempmod = 0.0
* Process Parameters
*(mismatch parameter sky130_fd_pr__nfet_01v8__toxe_slope_spectre)
+ toxe = 3.996598e-09
+ toxm = 4.148e-9
+ dtox = 0.0
+ epsrox = 3.9
+ xj = 1.5e-7
+ ngate = 1.0e+23
+ ndep = 1.7e+17
+ nsd = 1.0e+20
+ rsh = 1.0
+ rshg = 0.1
* Basic Model Parameters
+ wint = -6.60999999999998e-10
+ lint = 2.40595e-8
*(mismatch parameter sky130_fd_pr__nfet_01v8__vth0_slope_spectre)
+ vth0 = 5.216677013e-01 lvth0 = -2.927416090e-09 wvth0 = -3.681462022e-08 pvth0 = 2.927454790e-13
+ k1 = 5.415460247e-01 lk1 = -5.410258407e-09 wk1 = -6.803836640e-08 pk1 = 5.410329931e-13
+ k2 = -2.728362245e-02 lk2 = 3.742405313e-09 wk2 = 4.706376752e-08 pk2 = -3.742454788e-13
+ k3 = 2.0
+ k3b = 0.54
+ w0 = 0.0
+ dvt0 = 0.0
+ dvt1 = 0.53
+ dvt2 = -0.032
+ dvt0w = -3.58
+ dvt1w = 1670600.0
+ dvt2w = 0.068
+ dsub = 0.56
+ minv = 0.0
+ voffl = 5.8197729e-9
+ lpe0 = 1.0325e-7
+ lpeb = -7.082e-8
+ vbm = -3.0
+ dvtp0 = 0.0
+ dvtp1 = 0.0
+ phin = 0.0
+ cdsc = 0.0
+ cdscb = 0.0
+ cdscd = 0.0054
+ cit = 0.0
*(mismatch parameter sky130_fd_pr__nfet_01v8__voff_slope_spectre)
+ voff = -1.049993880e-01 lvoff = -2.140741475e-09 wvoff = -2.692155196e-08 pvoff = 2.140769775e-13
+ nfactor = 2.586099017e+00 lnfactor = -3.346960113e-08 wnfactor = -4.209072494e-07 pnfactor = 3.347004359e-12
+ eta0 = 0.08
+ etab = -0.07
+ u0 = 3.236740976e-02 lu0 = 9.001719900e-11 wu0 = 1.132038936e-09 pu0 = -9.001838903e-15
+ ua = -7.592259154e-10 lua = -3.067475044e-18 wua = -3.857597462e-17 pua = 3.067515596e-22
+ ub = 1.736242864e-18 lub = -3.309285372e-27 wub = -4.161693466e-26 pub = 3.309329120e-31
+ uc = 4.876992667e-11 luc = 3.753870973e-18 wuc = 4.720795745e-17 puc = -3.753920599e-22
+ ud = 0.0
+ up = 0.0
+ lp = 1.0
+ eu = 1.67
+ vtl = 0.0
+ xn = 3.0
+ vsat = 80000.0
+ a0 = 1.289894841e+00 la0 = 5.599046120e-08 wa0 = 7.041252428e-07 pa0 = -5.599120140e-12
+ ags = 4.369120661e-01 lags = -3.523209293e-09 wags = -4.430720065e-08 pags = 3.523255870e-13
+ a1 = 0.0
+ a2 = 0.42385546
+ b0 = 0.0
+ b1 = 1.950603759e-24 lb1 = 1.246367018e-30 wb1 = 1.567407127e-29 pb1 = -1.246383495e-34
+ keta = -8.287889113e-03 lketa = -4.029304676e-09 wketa = -5.067175858e-08 pketa = 4.029357943e-13
+ dwg = 0.0
+ dwb = 0.0
+ pclm = 6.801970356e-02 lpclm = -3.316228880e-07 wpclm = -4.170425488e-06 ppclm = 3.316272720e-11
+ pdiblc1 = 0.39
+ pdiblc2 = 3.074732584e-03 lpdiblc2 = -1.012977380e-11 wpdiblc2 = -1.273900819e-10 ppdiblc2 = 1.012990772e-15
+ pdiblcb = -0.025
+ drout = 0.56
+ pscbe1 = 7.580453780e+08 lpscbe1 = -2.680752404e+01 wpscbe1 = -3.371262527e+02 ppscbe1 = 2.680787844e-3
+ pscbe2 = 1.0e-12
+ pvag = 0.0
+ delta = 0.01
+ fprout = 0.0
+ pdits = 0.0
+ pditsl = 0.0
+ pditsd = 0.0
+ lambda = 0.0
+ lc = 5.0e-9
* Parameters FOR Asymmetric AND Bias-Dependent RDS Model
+ rdsw = 65.968
+ rsw = 0.0
+ rdw = 0.0
+ rdswmin = 0.0
+ rdwmin = 0.0
+ rswmin = 0.0
+ prwb = 0.0
+ prwg = 0.021507
+ wr = 1.0
* Impact Ionization Current Model Parameters
+ alpha0 = 3.0e-8
+ alpha1 = 0.85
+ beta0 = 13.86
* Gidl Induced Drain Leakage Model Parameters
+ agidl = 0.0
+ bgidl = 2300000000.0
+ cgidl = 0.5
+ egidl = 0.8
* Gate Dielectric Tunneling Current Model Parameters
+ toxref = 4.148e-9
+ dlcig = 0.0
+ aigbacc = 1.0
+ bigbacc = 0.0
+ cigbacc = 0.0
+ nigbacc = 0.0
+ aigbinv = 0.35
+ bigbinv = 0.03
+ cigbinv = 0.006
+ eigbinv = 1.1
+ nigbinv = 0.0
+ aigc = 0.43
+ bigc = 0.054
+ cigc = 0.075
+ aigsd = 0.43
+ bigsd = 0.054
+ cigsd = 0.075
+ nigc = 0.0
+ poxedge = 1.0
+ pigcd = 1.0
+ ntox = 1.0
+ vfbsdoff = 0.0
* Charge AND Capacitance Model Parameters
+ dlc = 1.85814e-8
+ dwc = -2.252e-8
+ xpart = 0.0
+ cgso = 2.4133302e-10
+ cgdo = 2.4133302e-10
+ cgbo = 1.0e-13
+ cgdl = 0.0
+ cgsl = 0.0
+ clc = 1.0e-7
+ cle = 0.6
+ cf = 1.4067e-12
+ ckappas = 0.6
+ vfbcv = -1.0
+ acde = 0.4
+ moin = 6.9
+ noff = 3.4037
+ voffcv = -0.17287
* High-Speed/RF Model Parameters
+ xrcrg1 = 12.0
+ xrcrg2 = 1.0
+ rbpb = 50.0
+ rbpd = 50.0
+ rbps = 50.0
+ rbdb = 50.0
+ rbsb = 50.0
+ gbmin = 1.0e-12
* Flicker AND Thermal Noise Model Parameters
+ ef = 0.84
+ noia = 2.5e+42
+ noib = 0.0
+ noic = 0.0
+ em = 41000000.0
+ ntnoi = 1.0
+ lintnoi = -1.0e-7
+ af = 1.0
+ kf = 0.0
+ tnoia = 15000000.0
+ tnoib = 9900000.0
+ rnoia = 0.94
+ rnoib = 0.26
* Layout-Dependent Parasitics Model Parameters
+ xl = 0.0
+ xw = 0.0
+ dmcg = 0.0
+ dmdg = 0.0
+ dmcgt = 0.0
+ xgw = 0.0
+ xgl = 0.0
+ ngcon = 1.0
* Asymmetric Source/Drain Junction Diode Model Parameters
+ jss = 0.00275
+ jsws = 6.0e-10
+ ijthsfwd = 0.1
+ ijthsrev = 0.1
+ bvs = 11.7
+ xjbvs = 1.0
+ pbs = 0.729
+ cjs = 0.001131080901
+ mjs = 0.44
+ pbsws = 0.2
+ cjsws = 3.101378147e-11
+ mjsws = 0.0009
+ pbswgs = 0.95578
+ cjswgs = 2.011274009e-10
+ mjswgs = 0.8
* Temperature Dependence Parameters
+ tnom = 30.0
+ kt1 = -3.131869363e-01 lkt1 = 1.247938830e-09 wkt1 = 1.569383807e-08 pkt1 = -1.247955328e-13
+ kt2 = -4.539674530e-02 lkt2 = 6.632528732e-10 wkt2 = 8.340940231e-09 pkt2 = -6.632616414e-14
+ at = 140000.0
+ ute = -1.816360220e+00 lute = 2.353932011e-08 wute = 2.960259503e-07 pute = -2.353963130e-12
+ ua1 = 3.613706280e-10 lua1 = 1.164900625e-16 wua1 = 1.464956562e-15 pua1 = -1.164916025e-20
+ ub1 = -6.204417884e-19 lub1 = -1.525028565e-25 wub1 = -1.917846515e-24 pub1 = 1.525048726e-29
+ uc1 = 1.691024595e-11 luc1 = -8.592269396e-18 wuc1 = -1.080547230e-16 puc1 = 8.592382985e-22
+ kt1l = 0.0
+ prt = 0.0
+ tvoff = 0.0
+ njs = 1.2928
+ tpb = 0.0012287
+ tcj = 0.000792
+ tpbsw = 0.0
+ tcjsw = 1.0e-5
+ tpbswg = 0.0
+ tcjswg = 0.0
+ xtis = 2.0
+ tvfbsdoff = 0.0
* DW AND DL Parameters
+ ll = 0.0
+ wl = 0.0
+ lln = 1.0
+ wln = 1.0
+ lw = 0.0
+ ww = 0.0
+ lwn = 1.0
+ wwn = 1.0
+ lwl = 0.0
+ wwl = 0.0
+ llc = 0.0
+ wlc = 0.0
+ lwc = 0.0
+ wwc = 0.0
+ lwlc = 0.0
+ wwlc = 0.0
* Stress Parameters
+ saref = 3.0e-6
+ sbref = 3.0e-6
+ kvth0 = 9.8e-9
+ lkvth0 = 0.0
+ wkvth0 = 2.0e-7
+ pkvth0 = 0.0
+ llodvth = 0.0
+ wlodvth = 1.0
+ wlod = 0.0
+ stk2 = 0.0
+ lodk2 = 1.0
+ lodeta0 = 1.0
+ ku0 = -2.7e-8
+ lku0 = 0.0
+ wku0 = 0.0
+ pku0 = 0.0
+ tku0 = 0.0
+ llodku0 = 0.0
+ wlodku0 = 1.0
+ kvsat = 0.2
+ steta0 = 0.0
* Well Proximity Effect Parameters
.model sky130_fd_pr__nfet_01v8__model.3 nmos
* Model Flag Parameters
+ lmin = 2.0e-06 lmax = 4.0e-06 wmin = 7.0e-06 wmax = 0.0001
+ level = 54.0
+ version = 4.5
+ binunit = 2.0
+ mobmod = 0.0
+ capmod = 2.0
+ igcmod = 0.0
+ igbmod = 0.0
+ geomod = 0.0
+ diomod = 1.0
+ rdsmod = 0.0
+ rbodymod = 1.0
+ rgatemod = 0.0
+ permod = 1.0
+ acnqsmod = 0.0
+ trnqsmod = 0.0
+ fnoimod = 1.0
+ tnoimod = 1.0
+ tempmod = 0.0
* Process Parameters
*(mismatch parameter sky130_fd_pr__nfet_01v8__toxe_slope_spectre)
+ toxe = 3.996598e-09
+ toxm = 4.148e-9
+ dtox = 0.0
+ epsrox = 3.9
+ xj = 1.5e-7
+ ngate = 1.0e+23
+ ndep = 1.7e+17
+ nsd = 1.0e+20
+ rsh = 1.0
+ rshg = 0.1
* Basic Model Parameters
+ wint = -6.60999999999998e-10
+ lint = 2.40595e-8
*(mismatch parameter sky130_fd_pr__nfet_01v8__vth0_slope_spectre)
+ vth0 = 5.162579434e-01 lvth0 = 1.845130344e-08 wvth0 = 2.110652363e-08 pvth0 = 6.384801114e-14
+ k1 = 5.305679793e-01 lk1 = 3.797367057e-08 wk1 = 1.370175511e-07 pk1 = -2.693235914e-13
+ k2 = -1.976964001e-02 lk2 = -2.595195915e-08 wk2 = -8.679876968e-08 pk2 = 1.547633386e-13
+ k3 = 2.0
+ k3b = 0.54
+ w0 = 0.0
+ dvt0 = 0.0
+ dvt1 = 0.53
+ dvt2 = -0.032
+ dvt0w = -3.58
+ dvt1w = 1670600.0
+ dvt2w = 0.068
+ dsub = 5.379584720e-01 ldsub = 8.710549588e-08 wdsub = 2.204181943e-06 pdsub = -8.710664742e-12
+ minv = 0.0
+ voffl = 5.8197729e-9
+ lpe0 = 1.0325e-7
+ lpeb = -7.082e-8
+ vbm = -3.0
+ dvtp0 = 0.0
+ dvtp1 = 0.0
+ phin = 0.0
+ cdsc = 0.0
+ cdscb = 0.0
+ cdscd = 0.0054
+ cit = 0.0
*(mismatch parameter sky130_fd_pr__nfet_01v8__voff_slope_spectre)
+ voff = -1.093592126e-01 lvoff = 1.508876654e-08 wvoff = 5.581643455e-08 pvoff = -1.128936993e-13
+ nfactor = 2.524931628e+00 lnfactor = 2.082566418e-07 wnfactor = 1.729922245e-07 pnfactor = 9.999843124e-13
+ eta0 = 7.415899507e-02 leta0 = 2.308295641e-08 weta0 = 5.841082149e-07 peta0 = -2.308326157e-12
+ etab = -6.489376344e-02 letab = -2.017923923e-08 wetab = -5.106304060e-07 petab = 2.017950600e-12
+ u0 = 3.241892097e-02 lu0 = -1.135489536e-10 wu0 = 1.083486111e-08 pu0 = -4.734623749e-14
+ ua = -7.780901697e-10 lua = 7.148181338e-17 wua = 1.341701049e-15 pua = -5.147938984e-21
+ ub = 1.738033714e-18 lub = -1.038651141e-26 wub = -7.667795080e-25 pub = 3.196689107e-30
+ uc = 5.868885025e-11 luc = -3.544453469e-17 wuc = -3.252598898e-16 puc = 1.096556549e-21
+ ud = 0.0
+ up = 0.0
+ lp = 1.0
+ eu = 1.67
+ vtl = 0.0
+ xn = 3.0
+ vsat = 80000.0
+ a0 = 1.400419455e+00 la0 = -3.807896638e-07 wa0 = -1.109326678e-06 pa0 = 1.567426049e-12
+ ags = 4.443124842e-01 lags = -3.276878091e-08 wags = -1.365734234e-06 pags = 5.574447973e-12
+ a1 = 0.0
+ a2 = 0.42385546
+ b0 = 0.0
+ b1 = 4.477460477e-24 lb1 = -8.739470033e-30 wb1 = -3.134814254e-29 pb1 = 6.118784381e-35
+ keta = -1.632055236e-02 lketa = 2.771482460e-08 wketa = 8.771741134e-08 pketa = -1.439617369e-13
+ dwg = 0.0
+ dwb = 0.0
+ pclm = -6.063528072e-01 lpclm = 2.333417024e-06 wpclm = 8.545619479e-06 ppclm = -1.708956930e-11
+ pdiblc1 = 0.39
+ pdiblc2 = 3.180707274e-03 lpdiblc2 = -4.289291370e-10 wpdiblc2 = -1.239654383e-08 ppdiblc2 = 4.949922637e-14
+ pdiblcb = -0.025
+ drout = 0.56
+ pscbe1 = 7.036964011e+08 lpscbe1 = 1.879731649e+02 wpscbe1 = 6.742525055e+02 ppscbe1 = -1.316060655e-3
+ pscbe2 = 1.0e-12
+ pvag = 0.0
+ delta = 0.01
+ fprout = 0.0
+ pdits = 0.0
+ pditsl = 0.0
+ pditsd = 0.0
+ lambda = 0.0
+ lc = 5.0e-9
* Parameters FOR Asymmetric AND Bias-Dependent RDS Model
+ rdsw = 65.968
+ rsw = 0.0
+ rdw = 0.0
+ rdswmin = 0.0
+ rdwmin = 0.0
+ rswmin = 0.0
+ prwb = 0.0
+ prwg = 0.021507
+ wr = 1.0
* Impact Ionization Current Model Parameters
+ alpha0 = 3.0e-8
+ alpha1 = 0.85
+ beta0 = 13.86
* Gidl Induced Drain Leakage Model Parameters
+ agidl = 0.0
+ bgidl = 2300000000.0
+ cgidl = 0.5
+ egidl = 0.8
* Gate Dielectric Tunneling Current Model Parameters
+ toxref = 4.148e-9
+ dlcig = 0.0
+ aigbacc = 1.0
+ bigbacc = 0.0
+ cigbacc = 0.0
+ nigbacc = 0.0
+ aigbinv = 0.35
+ bigbinv = 0.03
+ cigbinv = 0.006
+ eigbinv = 1.1
+ nigbinv = 0.0
+ aigc = 0.43
+ bigc = 0.054
+ cigc = 0.075
+ aigsd = 0.43
+ bigsd = 0.054
+ cigsd = 0.075
+ nigc = 0.0
+ poxedge = 1.0
+ pigcd = 1.0
+ ntox = 1.0
+ vfbsdoff = 0.0
* Charge AND Capacitance Model Parameters
+ dlc = 1.85814e-8
+ dwc = -2.252e-8
+ xpart = 0.0
+ cgso = 2.4133302e-10
+ cgdo = 2.4133302e-10
+ cgbo = 1.0e-13
+ cgdl = 0.0
+ cgsl = 0.0
+ clc = 1.0e-7
+ cle = 0.6
+ cf = 1.4067e-12
+ ckappas = 0.6
+ vfbcv = -1.0
+ acde = 0.4
+ moin = 6.9
+ noff = 3.4037
+ voffcv = -0.17287
* High-Speed/RF Model Parameters
+ xrcrg1 = 12.0
+ xrcrg2 = 1.0
+ rbpb = 50.0
+ rbpd = 50.0
+ rbps = 50.0
+ rbdb = 50.0
+ rbsb = 50.0
+ gbmin = 1.0e-12
* Flicker AND Thermal Noise Model Parameters
+ ef = 0.84
+ noia = 2.5e+42
+ noib = 0.0
+ noic = 0.0
+ em = 41000000.0
+ ntnoi = 1.0
+ lintnoi = -1.0e-7
+ af = 1.0
+ kf = 0.0
+ tnoia = 15000000.0
+ tnoib = 9900000.0
+ rnoia = 0.94
+ rnoib = 0.26
* Layout-Dependent Parasitics Model Parameters
+ xl = 0.0
+ xw = 0.0
+ dmcg = 0.0
+ dmdg = 0.0
+ dmcgt = 0.0
+ xgw = 0.0
+ xgl = 0.0
+ ngcon = 1.0
* Asymmetric Source/Drain Junction Diode Model Parameters
+ jss = 0.00275
+ jsws = 6.0e-10
+ ijthsfwd = 0.1
+ ijthsrev = 0.1
+ bvs = 11.7
+ xjbvs = 1.0
+ pbs = 0.729
+ cjs = 0.001131080901
+ mjs = 0.44
+ pbsws = 0.2
+ cjsws = 3.101378147e-11
+ mjsws = 0.0009
+ pbswgs = 0.95578
+ cjswgs = 2.011274009e-10
+ mjswgs = 0.8
* Temperature Dependence Parameters
+ tnom = 30.0
+ kt1 = -3.113063833e-01 lkt1 = -6.183782893e-09 wkt1 = 3.356221846e-08 pkt1 = -1.954092457e-13
+ kt2 = -4.405309717e-02 lkt2 = -4.646684630e-09 wkt2 = -1.658028237e-08 pkt2 = 3.215954194e-14
+ at = 1.381587977e+05 lat = 7.276212423e-03 wat = 1.841226650e-01 pat = -7.276308614e-7
+ ute = -1.758475983e+00 lute = -2.052122980e-07 wute = -1.608179776e-06 pute = 5.171231302e-12
+ ua1 = 6.200429155e-10 lua1 = -9.057520355e-16 wua1 = -5.180235943e-15 pua1 = 1.461184975e-20
+ ub1 = -9.431076880e-19 lub1 = 1.122634382e-24 wub1 = 5.184211542e-24 pub1 = -1.281600103e-29
+ uc1 = -6.292278389e-14 luc1 = 5.848367361e-17 wuc1 = 1.714481792e-16 puc1 = -2.453239098e-22
+ kt1l = 0.0
+ prt = 0.0
+ tvoff = 0.0
+ njs = 1.2928
+ tpb = 0.0012287
+ tcj = 0.000792
+ tpbsw = 0.0
+ tcjsw = 1.0e-5
+ tpbswg = 0.0
+ tcjswg = 0.0
+ xtis = 2.0
+ tvfbsdoff = 0.0
* DW AND DL Parameters
+ ll = 0.0
+ wl = 0.0
+ lln = 1.0
+ wln = 1.0
+ lw = 0.0
+ ww = 0.0
+ lwn = 1.0
+ wwn = 1.0
+ lwl = 0.0
+ wwl = 0.0
+ llc = 0.0
+ wlc = 0.0
+ lwc = 0.0
+ wwc = 0.0
+ lwlc = 0.0
+ wwlc = 0.0
* Stress Parameters
+ saref = 3.0e-6
+ sbref = 3.0e-6
+ kvth0 = 9.8e-9
+ lkvth0 = 0.0
+ wkvth0 = 2.0e-7
+ pkvth0 = 0.0
+ llodvth = 0.0
+ wlodvth = 1.0
+ wlod = 0.0
+ stk2 = 0.0
+ lodk2 = 1.0
+ lodeta0 = 1.0
+ ku0 = -2.7e-8
+ lku0 = 0.0
+ wku0 = 0.0
+ pku0 = 0.0
+ tku0 = 0.0
+ llodku0 = 0.0
+ wlodku0 = 1.0
+ kvsat = 0.2
+ steta0 = 0.0
* Well Proximity Effect Parameters
.model sky130_fd_pr__nfet_01v8__model.4 nmos
* Model Flag Parameters
+ lmin = 1.0e-06 lmax = 2.0e-06 wmin = 7.0e-06 wmax = 0.0001
+ level = 54.0
+ version = 4.5
+ binunit = 2.0
+ mobmod = 0.0
+ capmod = 2.0
+ igcmod = 0.0
+ igbmod = 0.0
+ geomod = 0.0
+ diomod = 1.0
+ rdsmod = 0.0
+ rbodymod = 1.0
+ rgatemod = 0.0
+ permod = 1.0
+ acnqsmod = 0.0
+ trnqsmod = 0.0
+ fnoimod = 1.0
+ tnoimod = 1.0
+ tempmod = 0.0
* Process Parameters
*(mismatch parameter sky130_fd_pr__nfet_01v8__toxe_slope_spectre)
+ toxe = 3.996598e-09
+ toxm = 4.148e-9
+ dtox = 0.0
+ epsrox = 3.9
+ xj = 1.5e-7
+ ngate = 1.0e+23
+ ndep = 1.7e+17
+ nsd = 1.0e+20
+ rsh = 1.0
+ rshg = 0.1
* Basic Model Parameters
+ wint = -6.60999999999998e-10
+ lint = 2.40595e-8
*(mismatch parameter sky130_fd_pr__nfet_01v8__vth0_slope_spectre)
+ vth0 = 5.274191454e-01 lvth0 = -3.334034725e-09 wvth0 = -1.169960907e-07 pvth0 = 3.334078801e-13
+ k1 = 5.524414795e-01 lk1 = -4.720798860e-09 wk1 = -2.428261577e-07 pk1 = 4.720861269e-13
+ k2 = -3.399072719e-02 lk2 = 1.805910719e-09 wk2 = 8.501334280e-08 pk2 = -1.805934593e-13
+ k3 = 2.0
+ k3b = 0.54
+ w0 = 0.0
+ dvt0 = 0.0
+ dvt1 = 0.53
+ dvt2 = -0.032
+ dvt0w = -3.58
+ dvt1w = 1670600.0
+ dvt2w = 0.068
+ dsub = 5.825849097e-01 wdsub = -2.258520825e-6
+ minv = 0.0
+ voffl = 5.8197729e-9
+ lpe0 = 1.0325e-7
+ lpeb = -7.082e-8
+ vbm = -3.0
+ dvtp0 = 0.0
+ dvtp1 = 0.0
+ phin = 0.0
+ cdsc = 0.0
+ cdscb = 0.0
+ cdscd = 0.0054
+ cit = 0.0
*(mismatch parameter sky130_fd_pr__nfet_01v8__voff_slope_spectre)
+ voff = -1.029702180e-01 lvoff = 2.618209377e-09 wvoff = 1.321175511e-07 pvoff = -2.618243989e-13
+ nfactor = 2.623186433e+00 lnfactor = 1.647495324e-08 wnfactor = 1.529376869e-06 pnfactor = -1.647517103e-12
+ eta0 = 8.613056143e-02 leta0 = -2.841165134e-10 weta0 = -6.130642477e-07 peta0 = 2.841202694e-14
+ etab = -7.521863285e-02 letab = -2.632280155e-11 wetab = 5.218701842e-07 petab = 2.632314954e-15
+ u0 = 3.205281457e-02 lu0 = 6.010471727e-10 wu0 = 1.737177312e-08 pu0 = -6.010551185e-14
+ ua = -7.785202275e-10 lua = 7.232123499e-17 wua = 2.409532604e-15 pua = -7.232219108e-21
+ ub = 1.763998182e-18 lub = -6.106606265e-26 wub = -2.257648002e-24 pub = 6.106686994e-30
+ uc = 3.956649379e-11 luc = 1.880029566e-18 wuc = 3.328550213e-16 puc = -1.880054420e-22
+ ud = 0.0
+ up = 0.0
+ lp = 1.0
+ eu = 1.67
+ vtl = 0.0
+ xn = 3.0
+ vsat = 8.145470791e+04 lvsat = -2.839416724e-03 wvsat = -1.454727138e-01 pvsat = 2.839454261e-7
+ a0 = 1.196986241e+00 la0 = 1.628776154e-08 wa0 = 5.281828507e-07 pa0 = -1.628797687e-12
+ ags = 4.484984837e-01 lags = -4.093935374e-08 wags = -6.072563982e-07 pags = 4.093989496e-12
+ a1 = 0.0
+ a2 = 0.42385546
+ b0 = 0.0
+ b1 = 0.0
+ keta = -6.775472469e-03 lketa = 9.083964511e-09 wketa = 4.793635840e-07 pketa = -9.084084601e-13
+ dwg = 0.0
+ dwb = 0.0
+ pclm = 5.771171562e-01 lpclm = 2.342448861e-08 wpclm = 9.902974737e-07 ppclm = -2.342479828e-12
+ pdiblc1 = 4.127280195e-01 lpdiblc1 = -4.436238950e-08 wpdiblc1 = -2.272832000e-06 ppdiblc1 = 4.436297597e-12
+ pdiblc2 = 2.903550064e-03 lpdiblc2 = 1.120487551e-10 wpdiblc2 = 1.870384087e-08 ppdiblc2 = -1.120502363e-14
+ pdiblcb = -2.322221739e-02 lpdiblcb = -3.470020103e-09 wpdiblcb = -1.777806115e-07 ppdiblcb = 3.470065977e-13
+ drout = 5.385018536e-01 ldrout = 4.196182351e-08 wdrout = 2.149843061e-06 pdrout = -4.196237825e-12
+ pscbe1 = 7.613803400e+08 lpscbe1 = 7.538098066e+01 wpscbe1 = 3.862017059e+03 ppscbe1 = -7.538197720e-3
+ pscbe2 = 1.0e-12
+ pvag = 0.0
+ delta = 0.01
+ fprout = 0.0
+ pdits = 0.0
+ pditsl = 0.0
+ pditsd = 0.0
+ lambda = 0.0
+ lc = 5.0e-9
* Parameters FOR Asymmetric AND Bias-Dependent RDS Model
+ rdsw = 65.968
+ rsw = 0.0
+ rdw = 0.0
+ rdswmin = 0.0
+ rdwmin = 0.0
+ rswmin = 0.0
+ prwb = 0.0
+ prwg = 0.021507
+ wr = 1.0
* Impact Ionization Current Model Parameters
+ alpha0 = 2.170338738e-07 lalpha0 = -3.650678645e-13 walpha0 = -1.870363463e-11 palpha0 = 3.650726907e-17
+ alpha1 = 8.524364566e-01 lalpha1 = -4.755673331e-09 walpha1 = -2.436488803e-07 palpha1 = 4.755736201e-13
+ beta0 = 1.405864287e+01 lbeta0 = -3.877272492e-07 wbeta0 = -1.986454989e-05 pbeta0 = 3.877323750e-11
* Gidl Induced Drain Leakage Model Parameters
+ agidl = 0.0
+ bgidl = 2300000000.0
+ cgidl = 0.5
+ egidl = 0.8
* Gate Dielectric Tunneling Current Model Parameters
+ toxref = 4.148e-9
+ dlcig = 0.0
+ aigbacc = 1.0
+ bigbacc = 0.0
+ cigbacc = 0.0
+ nigbacc = 0.0
+ aigbinv = 0.35
+ bigbinv = 0.03
+ cigbinv = 0.006
+ eigbinv = 1.1
+ nigbinv = 0.0
+ aigc = 0.43
+ bigc = 0.054
+ cigc = 0.075
+ aigsd = 0.43
+ bigsd = 0.054
+ cigsd = 0.075
+ nigc = 0.0
+ poxedge = 1.0
+ pigcd = 1.0
+ ntox = 1.0
+ vfbsdoff = 0.0
* Charge AND Capacitance Model Parameters
+ dlc = 1.85814e-8
+ dwc = -2.252e-8
+ xpart = 0.0
+ cgso = 2.4133302e-10
+ cgdo = 2.4133302e-10
+ cgbo = 1.0e-13
+ cgdl = 0.0
+ cgsl = 0.0
+ clc = 1.0e-7
+ cle = 0.6
+ cf = 1.4067e-12
+ ckappas = 0.6
+ vfbcv = -1.0
+ acde = 0.4
+ moin = 6.9
+ noff = 3.4037
+ voffcv = -0.17287
* High-Speed/RF Model Parameters
+ xrcrg1 = 12.0
+ xrcrg2 = 1.0
+ rbpb = 50.0
+ rbpd = 50.0
+ rbps = 50.0
+ rbdb = 50.0
+ rbsb = 50.0
+ gbmin = 1.0e-12
* Flicker AND Thermal Noise Model Parameters
+ ef = 0.84
+ noia = 2.5e+42
+ noib = 0.0
+ noic = 0.0
+ em = 41000000.0
+ ntnoi = 1.0
+ lintnoi = -1.0e-7
+ af = 1.0
+ kf = 0.0
+ tnoia = 15000000.0
+ tnoib = 9900000.0
+ rnoia = 0.94
+ rnoib = 0.26
* Layout-Dependent Parasitics Model Parameters
+ xl = 0.0
+ xw = 0.0
+ dmcg = 0.0
+ dmdg = 0.0
+ dmcgt = 0.0
+ xgw = 0.0
+ xgl = 0.0
+ ngcon = 1.0
* Asymmetric Source/Drain Junction Diode Model Parameters
+ jss = 0.00275
+ jsws = 6.0e-10
+ ijthsfwd = 0.1
+ ijthsrev = 0.1
+ bvs = 11.7
+ xjbvs = 1.0
+ pbs = 0.729
+ cjs = 0.001131080901
+ mjs = 0.44
+ pbsws = 0.2
+ cjsws = 3.101378147e-11
+ mjsws = 0.0009
+ pbswgs = 0.95578
+ cjswgs = 2.011274009e-10
+ mjswgs = 0.8
* Temperature Dependence Parameters
+ tnom = 30.0
+ kt1 = -3.107990316e-01 lkt1 = -7.174073093e-09 wkt1 = -4.341025824e-07 pkt1 = 7.174167934e-13
+ kt2 = -4.499607811e-02 lkt2 = -2.806098057e-09 wkt2 = -1.438697910e-07 pkt2 = 2.806135154e-13
+ at = 1.381907748e+05 lat = 7.213796952e-03 wat = 1.809249139e-01 pat = -7.213892319e-7
+ ute = -1.804270971e+00 lute = -1.158259318e-07 wute = -4.892967630e-06 pute = 1.158274630e-11
+ ua1 = 2.791770821e-10 lua1 = -2.404224918e-16 wua1 = -1.001184057e-14 pua1 = 2.404256702e-20
+ ub1 = -4.326222229e-19 lub1 = 1.262275014e-25 wub1 = 5.085289514e-24 pub1 = -1.262291701e-29
+ uc1 = 3.129225227e-11 luc1 = -2.717896822e-18 wuc1 = -9.348456268e-17 puc1 = 2.717932753e-22
+ kt1l = 0.0
+ prt = 0.0
+ tvoff = 0.0
+ njs = 1.2928
+ tpb = 0.0012287
+ tcj = 0.000792
+ tpbsw = 0.0
+ tcjsw = 1.0e-5
+ tpbswg = 0.0
+ tcjswg = 0.0
+ xtis = 2.0
+ tvfbsdoff = 0.0
* DW AND DL Parameters
+ ll = 0.0
+ wl = 0.0
+ lln = 1.0
+ wln = 1.0
+ lw = 0.0
+ ww = 0.0
+ lwn = 1.0
+ wwn = 1.0
+ lwl = 0.0
+ wwl = 0.0
+ llc = 0.0
+ wlc = 0.0
+ lwc = 0.0
+ wwc = 0.0
+ lwlc = 0.0
+ wwlc = 0.0
* Stress Parameters
+ saref = 2.75e-6
+ sbref = 2.74e-6
+ kvth0 = 9.8e-9
+ lkvth0 = 0.0
+ wkvth0 = 2.0e-7
+ pkvth0 = 0.0
+ llodvth = 0.0
+ wlodvth = 1.0
+ wlod = 0.0
+ stk2 = 0.0
+ lodk2 = 1.0