* DP8TColumn_128R8B4M
* DP8TCell
.subckt DP8TCell vdd vss wl1 wl2 bl1 bl1_n bl2 bl2_n
Mpu1 vdd bit_n bit vdd sky130_fd_pr__pfet_01v8__model l=0.15um w=0.42um
Mpu2 vdd bit bit_n vdd sky130_fd_pr__pfet_01v8__model l=0.15um w=0.42um
Mpd1 vss bit_n bit vss sky130_fd_pr__nfet_01v8__model l=0.15um w=0.36um
Mpd2 vss bit bit_n vss sky130_fd_pr__nfet_01v8__model l=0.15um w=0.36um
Mpg1 bl1 wl1 bit vss sky130_fd_pr__nfet_01v8__model l=0.17um w=0.36um
Mpg1n bl1_n wl1 bit_n vss sky130_fd_pr__nfet_01v8__model l=0.17um w=0.36um
Mpg2 bl2 wl2 bit vss sky130_fd_pr__nfet_01v8__model l=0.17um w=0.36um
Mpg2n bl2_n wl2 bit_n vss sky130_fd_pr__nfet_01v8__model l=0.17um w=0.36um
.ends DP8TCell
* DP8TArray_2X1
.subckt DP8TArray_2X1 vss vdd wl1[0] wl1[1] wl2[0] wl2[1] bl1[0] bl1_n[0] bl2[0] bl2_n[0]
Xinst0x0 vdd vss wl1[0] wl2[0] bl1[0] bl1_n[0] bl2[0] bl2_n[0] DP8TCell
Xinst1x0 vdd vss wl1[1] wl2[1] bl1[0] bl1_n[0] bl2[0] bl2_n[0] DP8TCell
.ends DP8TArray_2X1
* DP8TArray_2X2
.subckt DP8TArray_2X2 vss vdd wl1[0] wl2[0] wl1[1] wl2[1] bl1[0] bl1_n[0] bl2[0] bl2_n[0] bl1[1] bl1_n[1] bl2[1] bl2_n[1]
Xinst0x0 vss vdd wl1[0] wl1[1] wl2[0] wl2[1] bl1[0] bl1_n[0] bl2[0] bl2_n[0] DP8TArray_2X1
Xinst0x1 vss vdd wl1[0] wl1[1] wl2[0] wl2[1] bl1[1] bl1_n[1] bl2[1] bl2_n[1] DP8TArray_2X1
.ends DP8TArray_2X2
* DP8TArray_4X2
.subckt DP8TArray_4X2 vss vdd wl1[0] wl2[0] wl1[1] wl2[1] wl1[2] wl2[2] wl1[3] wl2[3] bl1[0] bl1_n[0] bl2[0] bl2_n[0] bl1[1] bl1_n[1] bl2[1] bl2_n[1]
Xinst0x0 vss vdd wl1[0] wl2[0] wl1[1] wl2[1] bl1[0] bl1_n[0] bl2[0] bl2_n[0] bl1[1] bl1_n[1] bl2[1] bl2_n[1] DP8TArray_2X2
Xinst1x0 vss vdd wl1[2] wl2[2] wl1[3] wl2[3] bl1[0] bl1_n[0] bl2[0] bl2_n[0] bl1[1] bl1_n[1] bl2[1] bl2_n[1] DP8TArray_2X2
.ends DP8TArray_4X2
* DP8TArray_4X4
.subckt DP8TArray_4X4 vss vdd wl1[0] wl2[0] wl1[1] wl2[1] wl1[2] wl2[2] wl1[3] wl2[3] bl1[0] bl1_n[0] bl2[0] bl2_n[0] bl1[1] bl1_n[1] bl2[1] bl2_n[1] bl1[2] bl1_n[2] bl2[2] bl2_n[2] bl1[3] bl1_n[3] bl2[3] bl2_n[3]
Xinst0x0 vss vdd wl1[0] wl2[0] wl1[1] wl2[1] wl1[2] wl2[2] wl1[3] wl2[3] bl1[0] bl1_n[0] bl2[0] bl2_n[0] bl1[1] bl1_n[1] bl2[1] bl2_n[1] DP8TArray_4X2
Xinst0x1 vss vdd wl1[0] wl2[0] wl1[1] wl2[1] wl1[2] wl2[2] wl1[3] wl2[3] bl1[2] bl1_n[2] bl2[2] bl2_n[2] bl1[3] bl1_n[3] bl2[3] bl2_n[3] DP8TArray_4X2
.ends DP8TArray_4X4
* DP8TArray_8X4
.subckt DP8TArray_8X4 vss vdd wl1[0] wl2[0] wl1[1] wl2[1] wl1[2] wl2[2] wl1[3] wl2[3] wl1[4] wl2[4] wl1[5] wl2[5] wl1[6] wl2[6] wl1[7] wl2[7] bl1[0] bl1_n[0] bl2[0] bl2_n[0] bl1[1] bl1_n[1] bl2[1] bl2_n[1] bl1[2] bl1_n[2] bl2[2] bl2_n[2] bl1[3] bl1_n[3] bl2[3] bl2_n[3]
Xinst0x0 vss vdd wl1[0] wl2[0] wl1[1] wl2[1] wl1[2] wl2[2] wl1[3] wl2[3] bl1[0] bl1_n[0] bl2[0] bl2_n[0] bl1[1] bl1_n[1] bl2[1] bl2_n[1] bl1[2] bl1_n[2] bl2[2] bl2_n[2] bl1[3] bl1_n[3] bl2[3] bl2_n[3] DP8TArray_4X4
Xinst1x0 vss vdd wl1[4] wl2[4] wl1[5] wl2[5] wl1[6] wl2[6] wl1[7] wl2[7] bl1[0] bl1_n[0] bl2[0] bl2_n[0] bl1[1] bl1_n[1] bl2[1] bl2_n[1] bl1[2] bl1_n[2] bl2[2] bl2_n[2] bl1[3] bl1_n[3] bl2[3] bl2_n[3] DP8TArray_4X4
.ends DP8TArray_8X4
* DP8TArray_8X8
.subckt DP8TArray_8X8 vss vdd wl1[0] wl2[0] wl1[1] wl2[1] wl1[2] wl2[2] wl1[3] wl2[3] wl1[4] wl2[4] wl1[5] wl2[5] wl1[6] wl2[6] wl1[7] wl2[7] bl1[0] bl1_n[0] bl2[0] bl2_n[0] bl1[1] bl1_n[1] bl2[1] bl2_n[1] bl1[2] bl1_n[2] bl2[2] bl2_n[2] bl1[3] bl1_n[3] bl2[3] bl2_n[3] bl1[4] bl1_n[4] bl2[4] bl2_n[4] bl1[5] bl1_n[5] bl2[5] bl2_n[5] bl1[6] bl1_n[6] bl2[6] bl2_n[6] bl1[7] bl1_n[7] bl2[7] bl2_n[7]
Xinst0x0 vss vdd wl1[0] wl2[0] wl1[1] wl2[1] wl1[2] wl2[2] wl1[3] wl2[3] wl1[4] wl2[4] wl1[5] wl2[5] wl1[6] wl2[6] wl1[7] wl2[7] bl1[0] bl1_n[0] bl2[0] bl2_n[0] bl1[1] bl1_n[1] bl2[1] bl2_n[1] bl1[2] bl1_n[2] bl2[2] bl2_n[2] bl1[3] bl1_n[3] bl2[3] bl2_n[3] DP8TArray_8X4
Xinst0x1 vss vdd wl1[0] wl2[0] wl1[1] wl2[1] wl1[2] wl2[2] wl1[3] wl2[3] wl1[4] wl2[4] wl1[5] wl2[5] wl1[6] wl2[6] wl1[7] wl2[7] bl1[4] bl1_n[4] bl2[4] bl2_n[4] bl1[5] bl1_n[5] bl2[5] bl2_n[5] bl1[6] bl1_n[6] bl2[6] bl2_n[6] bl1[7] bl1_n[7] bl2[7] bl2_n[7] DP8TArray_8X4
.ends DP8TArray_8X8
* DP8TArray_16X8
.subckt DP8TArray_16X8 vss vdd wl1[0] wl2[0] wl1[1] wl2[1] wl1[2] wl2[2] wl1[3] wl2[3] wl1[4] wl2[4] wl1[5] wl2[5] wl1[6] wl2[6] wl1[7] wl2[7] wl1[8] wl2[8] wl1[9] wl2[9] wl1[10] wl2[10] wl1[11] wl2[11] wl1[12] wl2[12] wl1[13] wl2[13] wl1[14] wl2[14] wl1[15] wl2[15] bl1[0] bl1_n[0] bl2[0] bl2_n[0] bl1[1] bl1_n[1] bl2[1] bl2_n[1] bl1[2] bl1_n[2] bl2[2] bl2_n[2] bl1[3] bl1_n[3] bl2[3] bl2_n[3] bl1[4] bl1_n[4] bl2[4] bl2_n[4] bl1[5] bl1_n[5] bl2[5] bl2_n[5] bl1[6] bl1_n[6] bl2[6] bl2_n[6] bl1[7] bl1_n[7] bl2[7] bl2_n[7]
Xinst0x0 vss vdd wl1[0] wl2[0] wl1[1] wl2[1] wl1[2] wl2[2] wl1[3] wl2[3] wl1[4] wl2[4] wl1[5] wl2[5] wl1[6] wl2[6] wl1[7] wl2[7] bl1[0] bl1_n[0] bl2[0] bl2_n[0] bl1[1] bl1_n[1] bl2[1] bl2_n[1] bl1[2] bl1_n[2] bl2[2] bl2_n[2] bl1[3] bl1_n[3] bl2[3] bl2_n[3] bl1[4] bl1_n[4] bl2[4] bl2_n[4] bl1[5] bl1_n[5] bl2[5] bl2_n[5] bl1[6] bl1_n[6] bl2[6] bl2_n[6] bl1[7] bl1_n[7] bl2[7] bl2_n[7] DP8TArray_8X8
Xinst1x0 vss vdd wl1[8] wl2[8] wl1[9] wl2[9] wl1[10] wl2[10] wl1[11] wl2[11] wl1[12] wl2[12] wl1[13] wl2[13] wl1[14] wl2[14] wl1[15] wl2[15] bl1[0] bl1_n[0] bl2[0] bl2_n[0] bl1[1] bl1_n[1] bl2[1] bl2_n[1] bl1[2] bl1_n[2] bl2[2] bl2_n[2] bl1[3] bl1_n[3] bl2[3] bl2_n[3] bl1[4] bl1_n[4] bl2[4] bl2_n[4] bl1[5] bl1_n[5] bl2[5] bl2_n[5] bl1[6] bl1_n[6] bl2[6] bl2_n[6] bl1[7] bl1_n[7] bl2[7] bl2_n[7] DP8TArray_8X8
.ends DP8TArray_16X8
* DP8TArray_16X16
.subckt DP8TArray_16X16 vss vdd wl1[0] wl2[0] wl1[1] wl2[1] wl1[2] wl2[2] wl1[3] wl2[3] wl1[4] wl2[4] wl1[5] wl2[5] wl1[6] wl2[6] wl1[7] wl2[7] wl1[8] wl2[8] wl1[9] wl2[9] wl1[10] wl2[10] wl1[11] wl2[11] wl1[12] wl2[12] wl1[13] wl2[13] wl1[14] wl2[14] wl1[15] wl2[15] bl1[0] bl1_n[0] bl2[0] bl2_n[0] bl1[1] bl1_n[1] bl2[1] bl2_n[1] bl1[2] bl1_n[2] bl2[2] bl2_n[2] bl1[3] bl1_n[3] bl2[3] bl2_n[3] bl1[4] bl1_n[4] bl2[4] bl2_n[4] bl1[5] bl1_n[5] bl2[5] bl2_n[5] bl1[6] bl1_n[6] bl2[6] bl2_n[6] bl1[7] bl1_n[7] bl2[7] bl2_n[7] bl1[8] bl1_n[8] bl2[8] bl2_n[8] bl1[9] bl1_n[9] bl2[9] bl2_n[9] bl1[10] bl1_n[10] bl2[10] bl2_n[10] bl1[11] bl1_n[11] bl2[11] bl2_n[11] bl1[12] bl1_n[12] bl2[12] bl2_n[12] bl1[13] bl1_n[13] bl2[13] bl2_n[13] bl1[14] bl1_n[14] bl2[14] bl2_n[14] bl1[15] bl1_n[15] bl2[15] bl2_n[15]
Xinst0x0 vss vdd wl1[0] wl2[0] wl1[1] wl2[1] wl1[2] wl2[2] wl1[3] wl2[3] wl1[4] wl2[4] wl1[5] wl2[5] wl1[6] wl2[6] wl1[7] wl2[7] wl1[8] wl2[8] wl1[9] wl2[9] wl1[10] wl2[10] wl1[11] wl2[11] wl1[12] wl2[12] wl1[13] wl2[13] wl1[14] wl2[14] wl1[15] wl2[15] bl1[0] bl1_n[0] bl2[0] bl2_n[0] bl1[1] bl1_n[1] bl2[1] bl2_n[1] bl1[2] bl1_n[2] bl2[2] bl2_n[2] bl1[3] bl1_n[3] bl2[3] bl2_n[3] bl1[4] bl1_n[4] bl2[4] bl2_n[4] bl1[5] bl1_n[5] bl2[5] bl2_n[5] bl1[6] bl1_n[6] bl2[6] bl2_n[6] bl1[7] bl1_n[7] bl2[7] bl2_n[7] DP8TArray_16X8
Xinst0x1 vss vdd wl1[0] wl2[0] wl1[1] wl2[1] wl1[2] wl2[2] wl1[3] wl2[3] wl1[4] wl2[4] wl1[5] wl2[5] wl1[6] wl2[6] wl1[7] wl2[7] wl1[8] wl2[8] wl1[9] wl2[9] wl1[10] wl2[10] wl1[11] wl2[11] wl1[12] wl2[12] wl1[13] wl2[13] wl1[14] wl2[14] wl1[15] wl2[15] bl1[8] bl1_n[8] bl2[8] bl2_n[8] bl1[9] bl1_n[9] bl2[9] bl2_n[9] bl1[10] bl1_n[10] bl2[10] bl2_n[10] bl1[11] bl1_n[11] bl2[11] bl2_n[11] bl1[12] bl1_n[12] bl2[12] bl2_n[12] bl1[13] bl1_n[13] bl2[13] bl2_n[13] bl1[14] bl1_n[14] bl2[14] bl2_n[14] bl1[15] bl1_n[15] bl2[15] bl2_n[15] DP8TArray_16X8
.ends DP8TArray_16X16
* DP8TArray_32X16
.subckt DP8TArray_32X16 vss vdd wl1[0] wl2[0] wl1[1] wl2[1] wl1[2] wl2[2] wl1[3] wl2[3] wl1[4] wl2[4] wl1[5] wl2[5] wl1[6] wl2[6] wl1[7] wl2[7] wl1[8] wl2[8] wl1[9] wl2[9] wl1[10] wl2[10] wl1[11] wl2[11] wl1[12] wl2[12] wl1[13] wl2[13] wl1[14] wl2[14] wl1[15] wl2[15] wl1[16] wl2[16] wl1[17] wl2[17] wl1[18] wl2[18] wl1[19] wl2[19] wl1[20] wl2[20] wl1[21] wl2[21] wl1[22] wl2[22] wl1[23] wl2[23] wl1[24] wl2[24] wl1[25] wl2[25] wl1[26] wl2[26] wl1[27] wl2[27] wl1[28] wl2[28] wl1[29] wl2[29] wl1[30] wl2[30] wl1[31] wl2[31] bl1[0] bl1_n[0] bl2[0] bl2_n[0] bl1[1] bl1_n[1] bl2[1] bl2_n[1] bl1[2] bl1_n[2] bl2[2] bl2_n[2] bl1[3] bl1_n[3] bl2[3] bl2_n[3] bl1[4] bl1_n[4] bl2[4] bl2_n[4] bl1[5] bl1_n[5] bl2[5] bl2_n[5] bl1[6] bl1_n[6] bl2[6] bl2_n[6] bl1[7] bl1_n[7] bl2[7] bl2_n[7] bl1[8] bl1_n[8] bl2[8] bl2_n[8] bl1[9] bl1_n[9] bl2[9] bl2_n[9] bl1[10] bl1_n[10] bl2[10] bl2_n[10] bl1[11] bl1_n[11] bl2[11] bl2_n[11] bl1[12] bl1_n[12] bl2[12] bl2_n[12] bl1[13] bl1_n[13] bl2[13] bl2_n[13] bl1[14] bl1_n[14] bl2[14] bl2_n[14] bl1[15] bl1_n[15] bl2[15] bl2_n[15]
Xinst0x0 vss vdd wl1[0] wl2[0] wl1[1] wl2[1] wl1[2] wl2[2] wl1[3] wl2[3] wl1[4] wl2[4] wl1[5] wl2[5] wl1[6] wl2[6] wl1[7] wl2[7] wl1[8] wl2[8] wl1[9] wl2[9] wl1[10] wl2[10] wl1[11] wl2[11] wl1[12] wl2[12] wl1[13] wl2[13] wl1[14] wl2[14] wl1[15] wl2[15] bl1[0] bl1_n[0] bl2[0] bl2_n[0] bl1[1] bl1_n[1] bl2[1] bl2_n[1] bl1[2] bl1_n[2] bl2[2] bl2_n[2] bl1[3] bl1_n[3] bl2[3] bl2_n[3] bl1[4] bl1_n[4] bl2[4] bl2_n[4] bl1[5] bl1_n[5] bl2[5] bl2_n[5] bl1[6] bl1_n[6] bl2[6] bl2_n[6] bl1[7] bl1_n[7] bl2[7] bl2_n[7] bl1[8] bl1_n[8] bl2[8] bl2_n[8] bl1[9] bl1_n[9] bl2[9] bl2_n[9] bl1[10] bl1_n[10] bl2[10] bl2_n[10] bl1[11] bl1_n[11] bl2[11] bl2_n[11] bl1[12] bl1_n[12] bl2[12] bl2_n[12] bl1[13] bl1_n[13] bl2[13] bl2_n[13] bl1[14] bl1_n[14] bl2[14] bl2_n[14] bl1[15] bl1_n[15] bl2[15] bl2_n[15] DP8TArray_16X16
Xinst1x0 vss vdd wl1[16] wl2[16] wl1[17] wl2[17] wl1[18] wl2[18] wl1[19] wl2[19] wl1[20] wl2[20] wl1[21] wl2[21] wl1[22] wl2[22] wl1[23] wl2[23] wl1[24] wl2[24] wl1[25] wl2[25] wl1[26] wl2[26] wl1[27] wl2[27] wl1[28] wl2[28] wl1[29] wl2[29] wl1[30] wl2[30] wl1[31] wl2[31] bl1[0] bl1_n[0] bl2[0] bl2_n[0] bl1[1] bl1_n[1] bl2[1] bl2_n[1] bl1[2] bl1_n[2] bl2[2] bl2_n[2] bl1[3] bl1_n[3] bl2[3] bl2_n[3] bl1[4] bl1_n[4] bl2[4] bl2_n[4] bl1[5] bl1_n[5] bl2[5] bl2_n[5] bl1[6] bl1_n[6] bl2[6] bl2_n[6] bl1[7] bl1_n[7] bl2[7] bl2_n[7] bl1[8] bl1_n[8] bl2[8] bl2_n[8] bl1[9] bl1_n[9] bl2[9] bl2_n[9] bl1[10] bl1_n[10] bl2[10] bl2_n[10] bl1[11] bl1_n[11] bl2[11] bl2_n[11] bl1[12] bl1_n[12] bl2[12] bl2_n[12] bl1[13] bl1_n[13] bl2[13] bl2_n[13] bl1[14] bl1_n[14] bl2[14] bl2_n[14] bl1[15] bl1_n[15] bl2[15] bl2_n[15] DP8TArray_16X16
.ends DP8TArray_32X16
* nand2_x0
.subckt nand2_x0 vdd vss nq i0 i1
Mn0 vss i0 int0 vss sky130_fd_pr__nfet_01v8__model l=0.15um w=2.0um
Mp0 vdd i0 nq vdd sky130_fd_pr__pfet_01v8__model l=0.15um w=2.0um
Mn1 int0 i1 nq vss sky130_fd_pr__nfet_01v8__model l=0.15um w=2.0um
Mp1 nq i1 vdd vdd sky130_fd_pr__pfet_01v8__model l=0.15um w=2.0um
.ends nand2_x0
* buf_x2
.subckt buf_x2 vdd vss i q
Mn1 ni i vss vss sky130_fd_pr__nfet_01v8__model l=0.15um w=1.0um
Mn2_0 vss ni q vss sky130_fd_pr__nfet_01v8__model l=0.15um w=1.8um
Mn2_1 q ni vss vss sky130_fd_pr__nfet_01v8__model l=0.15um w=1.8um
Mp1 ni i vdd vdd sky130_fd_pr__pfet_01v8__model l=0.15um w=2.0um
Mp2_0 vdd ni q vdd sky130_fd_pr__pfet_01v8__model l=0.15um w=3.6um
Mp2_1 q ni vdd vdd sky130_fd_pr__pfet_01v8__model l=0.15um w=3.6um
.ends buf_x2
* inv_x0
.subckt inv_x0 vdd vss i nq
Mn vss i nq vss sky130_fd_pr__nfet_01v8__model l=0.15um w=1.0um
Mp vdd i nq vdd sky130_fd_pr__pfet_01v8__model l=0.15um w=2.0um
.ends inv_x0
* nor2_x0
.subckt nor2_x0 vdd vss nq i0 i1
Mn0 vss i0 nq vss sky130_fd_pr__nfet_01v8__model l=0.15um w=1.0um
Mp0 vdd i0 int0 vdd sky130_fd_pr__pfet_01v8__model l=0.15um w=3.0um
Mn1 nq i1 vss vss sky130_fd_pr__nfet_01v8__model l=0.15um w=1.0um
Mp1 int0 i1 nq vdd sky130_fd_pr__pfet_01v8__model l=0.15um w=3.0um
.ends nor2_x0
* sff1_x4
.subckt sff1_x4 vdd ck vss i q
Mp_ck nckr ck vdd vdd sky130_fd_pr__pfet_01v8__model l=0.15um w=2.0um
Mn_ck nckr ck vss vss sky130_fd_pr__nfet_01v8__model l=0.15um w=1.0um
Mp_ckr_1 _net1 ckr sff_m vdd sky130_fd_pr__pfet_01v8__model l=0.15um w=2.0um
Mn_ckr_2 y ckr sff_s vss sky130_fd_pr__nfet_01v8__model l=0.15um w=1.0um
Mn_ckr_1 sff_m ckr _net4 vss sky130_fd_pr__nfet_01v8__model l=0.15um w=1.0um
Mp_ckr_2 sff_s ckr _net0 vdd sky130_fd_pr__pfet_01v8__model l=0.15um w=2.0um
Mn_i u i vss vss sky130_fd_pr__nfet_01v8__model l=0.15um w=1.0um
Mp_i u i vdd vdd sky130_fd_pr__pfet_01v8__model l=0.15um w=2.0um
Mp_nckr_2 sff_m nckr _net5 vdd sky130_fd_pr__pfet_01v8__model l=0.15um w=2.0um
Mp_nckr_3 y nckr sff_s vdd sky130_fd_pr__pfet_01v8__model l=0.15um w=2.0um
Mp_nckr_1 vdd nckr ckr vdd sky130_fd_pr__pfet_01v8__model l=0.15um w=2.0um
Mn_nckr_1 vss nckr ckr vss sky130_fd_pr__nfet_01v8__model l=0.15um w=1.0um
Mn_nckr_3 sff_s nckr _net6 vss sky130_fd_pr__nfet_01v8__model l=0.15um w=1.0um
Mn_nckr_2 _net2 nckr sff_m vss sky130_fd_pr__nfet_01v8__model l=0.15um w=1.0um
Mn_q_1 _net6 q vss vss sky130_fd_pr__nfet_01v8__model l=0.15um w=1.0um
Mp_q_1 _net0 q vdd vdd sky130_fd_pr__pfet_01v8__model l=0.15um w=2.0um
Mn_sffm_1 vss sff_m y vss sky130_fd_pr__nfet_01v8__model l=0.15um w=0.9um
Mp_sffm_1 vdd sff_m y vdd sky130_fd_pr__pfet_01v8__model l=0.15um w=2.0um
Mp_sffs_1 vdd sff_s q vdd sky130_fd_pr__pfet_01v8__model l=0.15um w=4.0um
Mn_sffs_1 vss sff_s q vss sky130_fd_pr__nfet_01v8__model l=0.15um w=1.9um
Mn_sffs_2 q sff_s vss vss sky130_fd_pr__nfet_01v8__model l=0.15um w=1.9um
Mp_sffs_2 q sff_s vdd vdd sky130_fd_pr__pfet_01v8__model l=0.15um w=4.0um
Mn_u vss u _net2 vss sky130_fd_pr__nfet_01v8__model l=0.15um w=1.0um
Mp_u vdd u _net1 vdd sky130_fd_pr__pfet_01v8__model l=0.15um w=2.0um
Mn_y_1 _net4 y vss vss sky130_fd_pr__nfet_01v8__model l=0.15um w=0.9um
Mp_y_1 _net5 y vdd vdd sky130_fd_pr__pfet_01v8__model l=0.15um w=2.0um
.ends sff1_x4
* tie
.subckt tie vdd vss

.ends tie
* nsnrlatch_x1
.subckt nsnrlatch_x1 vss nq q vdd nrst nset
Mn_nq_1 _net1 nq vss vss sky130_fd_pr__nfet_01v8__model l=0.15um w=2.0um
Mp_nq_1 q nq vdd vdd sky130_fd_pr__pfet_01v8__model l=0.15um w=2.0um
Mp_nrst_1 nq nrst vdd vdd sky130_fd_pr__pfet_01v8__model l=0.15um w=2.0um
Mn_nrst_1 _net0 nrst nq vss sky130_fd_pr__nfet_01v8__model l=0.15um w=2.0um
Mp_nset_1 vdd nset q vdd sky130_fd_pr__pfet_01v8__model l=0.15um w=2.0um
Mn_nset_1 q nset _net1 vss sky130_fd_pr__nfet_01v8__model l=0.15um w=2.0um
Mp_q_1 vdd q nq vdd sky130_fd_pr__pfet_01v8__model l=0.15um w=2.0um
Mn_q_1 vss q _net0 vss sky130_fd_pr__nfet_01v8__model l=0.15um w=2.0um
.ends nsnrlatch_x1
* DP8TArray_32X32
.subckt DP8TArray_32X32 vss vdd wl1[0] wl2[0] wl1[1] wl2[1] wl1[2] wl2[2] wl1[3] wl2[3] wl1[4] wl2[4] wl1[5] wl2[5] wl1[6] wl2[6] wl1[7] wl2[7] wl1[8] wl2[8] wl1[9] wl2[9] wl1[10] wl2[10] wl1[11] wl2[11] wl1[12] wl2[12] wl1[13] wl2[13] wl1[14] wl2[14] wl1[15] wl2[15] wl1[16] wl2[16] wl1[17] wl2[17] wl1[18] wl2[18] wl1[19] wl2[19] wl1[20] wl2[20] wl1[21] wl2[21] wl1[22] wl2[22] wl1[23] wl2[23] wl1[24] wl2[24] wl1[25] wl2[25] wl1[26] wl2[26] wl1[27] wl2[27] wl1[28] wl2[28] wl1[29] wl2[29] wl1[30] wl2[30] wl1[31] wl2[31] bl1[0] bl1_n[0] bl2[0] bl2_n[0] bl1[1] bl1_n[1] bl2[1] bl2_n[1] bl1[2] bl1_n[2] bl2[2] bl2_n[2] bl1[3] bl1_n[3] bl2[3] bl2_n[3] bl1[4] bl1_n[4] bl2[4] bl2_n[4] bl1[5] bl1_n[5] bl2[5] bl2_n[5] bl1[6] bl1_n[6] bl2[6] bl2_n[6] bl1[7] bl1_n[7] bl2[7] bl2_n[7] bl1[8] bl1_n[8] bl2[8] bl2_n[8] bl1[9] bl1_n[9] bl2[9] bl2_n[9] bl1[10] bl1_n[10] bl2[10] bl2_n[10] bl1[11] bl1_n[11] bl2[11] bl2_n[11] bl1[12] bl1_n[12] bl2[12] bl2_n[12] bl1[13] bl1_n[13] bl2[13] bl2_n[13] bl1[14] bl1_n[14] bl2[14] bl2_n[14] bl1[15] bl1_n[15] bl2[15] bl2_n[15] bl1[16] bl1_n[16] bl2[16] bl2_n[16] bl1[17] bl1_n[17] bl2[17] bl2_n[17] bl1[18] bl1_n[18] bl2[18] bl2_n[18] bl1[19] bl1_n[19] bl2[19] bl2_n[19] bl1[20] bl1_n[20] bl2[20] bl2_n[20] bl1[21] bl1_n[21] bl2[21] bl2_n[21] bl1[22] bl1_n[22] bl2[22] bl2_n[22] bl1[23] bl1_n[23] bl2[23] bl2_n[23] bl1[24] bl1_n[24] bl2[24] bl2_n[24] bl1[25] bl1_n[25] bl2[25] bl2_n[25] bl1[26] bl1_n[26] bl2[26] bl2_n[26] bl1[27] bl1_n[27] bl2[27] bl2_n[27] bl1[28] bl1_n[28] bl2[28] bl2_n[28] bl1[29] bl1_n[29] bl2[29] bl2_n[29] bl1[30] bl1_n[30] bl2[30] bl2_n[30] bl1[31] bl1_n[31] bl2[31] bl2_n[31]
Xinst0x0 vss vdd wl1[0] wl2[0] wl1[1] wl2[1] wl1[2] wl2[2] wl1[3] wl2[3] wl1[4] wl2[4] wl1[5] wl2[5] wl1[6] wl2[6] wl1[7] wl2[7] wl1[8] wl2[8] wl1[9] wl2[9] wl1[10] wl2[10] wl1[11] wl2[11] wl1[12] wl2[12] wl1[13] wl2[13] wl1[14] wl2[14] wl1[15] wl2[15] wl1[16] wl2[16] wl1[17] wl2[17] wl1[18] wl2[18] wl1[19] wl2[19] wl1[20] wl2[20] wl1[21] wl2[21] wl1[22] wl2[22] wl1[23] wl2[23] wl1[24] wl2[24] wl1[25] wl2[25] wl1[26] wl2[26] wl1[27] wl2[27] wl1[28] wl2[28] wl1[29] wl2[29] wl1[30] wl2[30] wl1[31] wl2[31] bl1[0] bl1_n[0] bl2[0] bl2_n[0] bl1[1] bl1_n[1] bl2[1] bl2_n[1] bl1[2] bl1_n[2] bl2[2] bl2_n[2] bl1[3] bl1_n[3] bl2[3] bl2_n[3] bl1[4] bl1_n[4] bl2[4] bl2_n[4] bl1[5] bl1_n[5] bl2[5] bl2_n[5] bl1[6] bl1_n[6] bl2[6] bl2_n[6] bl1[7] bl1_n[7] bl2[7] bl2_n[7] bl1[8] bl1_n[8] bl2[8] bl2_n[8] bl1[9] bl1_n[9] bl2[9] bl2_n[9] bl1[10] bl1_n[10] bl2[10] bl2_n[10] bl1[11] bl1_n[11] bl2[11] bl2_n[11] bl1[12] bl1_n[12] bl2[12] bl2_n[12] bl1[13] bl1_n[13] bl2[13] bl2_n[13] bl1[14] bl1_n[14] bl2[14] bl2_n[14] bl1[15] bl1_n[15] bl2[15] bl2_n[15] DP8TArray_32X16
Xinst0x1 vss vdd wl1[0] wl2[0] wl1[1] wl2[1] wl1[2] wl2[2] wl1[3] wl2[3] wl1[4] wl2[4] wl1[5] wl2[5] wl1[6] wl2[6] wl1[7] wl2[7] wl1[8] wl2[8] wl1[9] wl2[9] wl1[10] wl2[10] wl1[11] wl2[11] wl1[12] wl2[12] wl1[13] wl2[13] wl1[14] wl2[14] wl1[15] wl2[15] wl1[16] wl2[16] wl1[17] wl2[17] wl1[18] wl2[18] wl1[19] wl2[19] wl1[20] wl2[20] wl1[21] wl2[21] wl1[22] wl2[22] wl1[23] wl2[23] wl1[24] wl2[24] wl1[25] wl2[25] wl1[26] wl2[26] wl1[27] wl2[27] wl1[28] wl2[28] wl1[29] wl2[29] wl1[30] wl2[30] wl1[31] wl2[31] bl1[16] bl1_n[16] bl2[16] bl2_n[16] bl1[17] bl1_n[17] bl2[17] bl2_n[17] bl1[18] bl1_n[18] bl2[18] bl2_n[18] bl1[19] bl1_n[19] bl2[19] bl2_n[19] bl1[20] bl1_n[20] bl2[20] bl2_n[20] bl1[21] bl1_n[21] bl2[21] bl2_n[21] bl1[22] bl1_n[22] bl2[22] bl2_n[22] bl1[23] bl1_n[23] bl2[23] bl2_n[23] bl1[24] bl1_n[24] bl2[24] bl2_n[24] bl1[25] bl1_n[25] bl2[25] bl2_n[25] bl1[26] bl1_n[26] bl2[26] bl2_n[26] bl1[27] bl1_n[27] bl2[27] bl2_n[27] bl1[28] bl1_n[28] bl2[28] bl2_n[28] bl1[29] bl1_n[29] bl2[29] bl2_n[29] bl1[30] bl1_n[30] bl2[30] bl2_n[30] bl1[31] bl1_n[31] bl2[31] bl2_n[31] DP8TArray_32X16
.ends DP8TArray_32X32
* DP8TColMux_4C_bl2
.subckt DP8TColMux_4C_bl2 bl[0] bl_n[0] mux[0] bl[1] bl_n[1] mux[1] bl[2] bl_n[2] mux[2] bl[3] bl_n[3] mux[3] vss muxbl muxbl_n
Mpgbl0 bl[0] mux[0] muxbl vss sky130_fd_pr__nfet_01v8__model l=0.15um w=4.0um
Mpgbln0 muxbl_n mux[0] bl_n[0] vss sky130_fd_pr__nfet_01v8__model l=0.15um w=4.0um
Mpgbl1 bl[1] mux[1] muxbl vss sky130_fd_pr__nfet_01v8__model l=0.15um w=4.0um
Mpgbln1 muxbl_n mux[1] bl_n[1] vss sky130_fd_pr__nfet_01v8__model l=0.15um w=4.0um
Mpgbl2 bl[2] mux[2] muxbl vss sky130_fd_pr__nfet_01v8__model l=0.15um w=4.0um
Mpgbln2 muxbl_n mux[2] bl_n[2] vss sky130_fd_pr__nfet_01v8__model l=0.15um w=4.0um
Mpgbl3 bl[3] mux[3] muxbl vss sky130_fd_pr__nfet_01v8__model l=0.15um w=4.0um
Mpgbln3 muxbl_n mux[3] bl_n[3] vss sky130_fd_pr__nfet_01v8__model l=0.15um w=4.0um
.ends DP8TColMux_4C_bl2
* DP8TPrecharge_bl2
.subckt DP8TPrecharge_bl2 vdd bl bl_n precharge_n
Mpc1 vdd precharge_n bl vdd sky130_fd_pr__pfet_01v8__model l=0.15um w=0.42um
Mpc2 bl precharge_n bl_n vdd sky130_fd_pr__pfet_01v8__model l=0.15um w=0.42um
Mpc3 bl_n precharge_n vdd vdd sky130_fd_pr__pfet_01v8__model l=0.15um w=0.42um
.ends DP8TPrecharge_bl2
* DP8TClockWE
.subckt DP8TClockWE vss vdd clkup clklow we we_en we_n
Xclkbuf vdd vss clkup clklow buf_x2
Xweff vdd clklow vss we we_latched sff1_x4
Xwenand vdd vss we_n we_en we_latched nand2_x0
.ends DP8TClockWE
* DP8TWriteDriver_4M2B
.subckt DP8TWriteDriver_4M2B vss vdd clk we_n bl[0] bl_n[0] d[0] bl[1] bl_n[1] d[1]
Xff[0] vdd clk vss d[0] d_latched[0] sff1_x4
Xff[1] vdd clk vss d[1] d_latched[1] sff1_x4
Xnora[0] vdd vss bl_drive[0] d_latched[0] we_n nor2_x0
Xnora[1] vdd vss bl_drive[1] d_latched[1] we_n nor2_x0
Xinv[0] vdd vss d_latched[0] d_n[0] inv_x0
Xinv[1] vdd vss d_latched[1] d_n[1] inv_x0
Xnorb[0] vdd vss bln_drive[0] d_n[0] we_n nor2_x0
Xnorb[1] vdd vss bln_drive[1] d_n[1] we_n nor2_x0
Mblpd[0] vss bl_drive[0] bl[0] vss sky130_fd_pr__nfet_01v8__model l=0.15um w=3.9um
Mblpd[1] vss bl_drive[1] bl[1] vss sky130_fd_pr__nfet_01v8__model l=0.15um w=3.9um
Mblnpd[0] bl_n[0] bln_drive[0] vss vss sky130_fd_pr__nfet_01v8__model l=0.15um w=3.9um
Mblnpd[1] bl_n[1] bln_drive[1] vss vss sky130_fd_pr__nfet_01v8__model l=0.15um w=3.9um
.ends DP8TWriteDriver_4M2B
* DP8TSenseAmp_4M
.subckt DP8TSenseAmp_4M vss vdd bl bl_n q
Xlatch vss nq q vdd bl bl_n nsnrlatch_x1
Xtie vdd vss tie
.ends DP8TSenseAmp_4M
* DP8TColMux_4C_bl1
.subckt DP8TColMux_4C_bl1 bl[0] bl_n[0] mux[0] bl[1] bl_n[1] mux[1] bl[2] bl_n[2] mux[2] bl[3] bl_n[3] mux[3] vss muxbl muxbl_n
Mpgbl0 bl[0] mux[0] muxbl vss sky130_fd_pr__nfet_01v8__model l=0.15um w=4.0um
Mpgbln0 muxbl_n mux[0] bl_n[0] vss sky130_fd_pr__nfet_01v8__model l=0.15um w=4.0um
Mpgbl1 bl[1] mux[1] muxbl vss sky130_fd_pr__nfet_01v8__model l=0.15um w=4.0um
Mpgbln1 muxbl_n mux[1] bl_n[1] vss sky130_fd_pr__nfet_01v8__model l=0.15um w=4.0um
Mpgbl2 bl[2] mux[2] muxbl vss sky130_fd_pr__nfet_01v8__model l=0.15um w=4.0um
Mpgbln2 muxbl_n mux[2] bl_n[2] vss sky130_fd_pr__nfet_01v8__model l=0.15um w=4.0um
Mpgbl3 bl[3] mux[3] muxbl vss sky130_fd_pr__nfet_01v8__model l=0.15um w=4.0um
Mpgbln3 muxbl_n mux[3] bl_n[3] vss sky130_fd_pr__nfet_01v8__model l=0.15um w=4.0um
.ends DP8TColMux_4C_bl1
* DP8TPrecharge_bl1
.subckt DP8TPrecharge_bl1 vdd bl bl_n precharge_n
Mpc1 vdd precharge_n bl vdd sky130_fd_pr__pfet_01v8__model l=0.15um w=0.42um
Mpc2 bl precharge_n bl_n vdd sky130_fd_pr__pfet_01v8__model l=0.15um w=0.42um
Mpc3 bl_n precharge_n vdd vdd sky130_fd_pr__pfet_01v8__model l=0.15um w=0.42um
.ends DP8TPrecharge_bl1
* DP8TArray_64X32
.subckt DP8TArray_64X32 vss vdd wl1[0] wl2[0] wl1[1] wl2[1] wl1[2] wl2[2] wl1[3] wl2[3] wl1[4] wl2[4] wl1[5] wl2[5] wl1[6] wl2[6] wl1[7] wl2[7] wl1[8] wl2[8] wl1[9] wl2[9] wl1[10] wl2[10] wl1[11] wl2[11] wl1[12] wl2[12] wl1[13] wl2[13] wl1[14] wl2[14] wl1[15] wl2[15] wl1[16] wl2[16] wl1[17] wl2[17] wl1[18] wl2[18] wl1[19] wl2[19] wl1[20] wl2[20] wl1[21] wl2[21] wl1[22] wl2[22] wl1[23] wl2[23] wl1[24] wl2[24] wl1[25] wl2[25] wl1[26] wl2[26] wl1[27] wl2[27] wl1[28] wl2[28] wl1[29] wl2[29] wl1[30] wl2[30] wl1[31] wl2[31] wl1[32] wl2[32] wl1[33] wl2[33] wl1[34] wl2[34] wl1[35] wl2[35] wl1[36] wl2[36] wl1[37] wl2[37] wl1[38] wl2[38] wl1[39] wl2[39] wl1[40] wl2[40] wl1[41] wl2[41] wl1[42] wl2[42] wl1[43] wl2[43] wl1[44] wl2[44] wl1[45] wl2[45] wl1[46] wl2[46] wl1[47] wl2[47] wl1[48] wl2[48] wl1[49] wl2[49] wl1[50] wl2[50] wl1[51] wl2[51] wl1[52] wl2[52] wl1[53] wl2[53] wl1[54] wl2[54] wl1[55] wl2[55] wl1[56] wl2[56] wl1[57] wl2[57] wl1[58] wl2[58] wl1[59] wl2[59] wl1[60] wl2[60] wl1[61] wl2[61] wl1[62] wl2[62] wl1[63] wl2[63] bl1[0] bl1_n[0] bl2[0] bl2_n[0] bl1[1] bl1_n[1] bl2[1] bl2_n[1] bl1[2] bl1_n[2] bl2[2] bl2_n[2] bl1[3] bl1_n[3] bl2[3] bl2_n[3] bl1[4] bl1_n[4] bl2[4] bl2_n[4] bl1[5] bl1_n[5] bl2[5] bl2_n[5] bl1[6] bl1_n[6] bl2[6] bl2_n[6] bl1[7] bl1_n[7] bl2[7] bl2_n[7] bl1[8] bl1_n[8] bl2[8] bl2_n[8] bl1[9] bl1_n[9] bl2[9] bl2_n[9] bl1[10] bl1_n[10] bl2[10] bl2_n[10] bl1[11] bl1_n[11] bl2[11] bl2_n[11] bl1[12] bl1_n[12] bl2[12] bl2_n[12] bl1[13] bl1_n[13] bl2[13] bl2_n[13] bl1[14] bl1_n[14] bl2[14] bl2_n[14] bl1[15] bl1_n[15] bl2[15] bl2_n[15] bl1[16] bl1_n[16] bl2[16] bl2_n[16] bl1[17] bl1_n[17] bl2[17] bl2_n[17] bl1[18] bl1_n[18] bl2[18] bl2_n[18] bl1[19] bl1_n[19] bl2[19] bl2_n[19] bl1[20] bl1_n[20] bl2[20] bl2_n[20] bl1[21] bl1_n[21] bl2[21] bl2_n[21] bl1[22] bl1_n[22] bl2[22] bl2_n[22] bl1[23] bl1_n[23] bl2[23] bl2_n[23] bl1[24] bl1_n[24] bl2[24] bl2_n[24] bl1[25] bl1_n[25] bl2[25] bl2_n[25] bl1[26] bl1_n[26] bl2[26] bl2_n[26] bl1[27] bl1_n[27] bl2[27] bl2_n[27] bl1[28] bl1_n[28] bl2[28] bl2_n[28] bl1[29] bl1_n[29] bl2[29] bl2_n[29] bl1[30] bl1_n[30] bl2[30] bl2_n[30] bl1[31] bl1_n[31] bl2[31] bl2_n[31]
Xinst0x0 vss vdd wl1[0] wl2[0] wl1[1] wl2[1] wl1[2] wl2[2] wl1[3] wl2[3] wl1[4] wl2[4] wl1[5] wl2[5] wl1[6] wl2[6] wl1[7] wl2[7] wl1[8] wl2[8] wl1[9] wl2[9] wl1[10] wl2[10] wl1[11] wl2[11] wl1[12] wl2[12] wl1[13] wl2[13] wl1[14] wl2[14] wl1[15] wl2[15] wl1[16] wl2[16] wl1[17] wl2[17] wl1[18] wl2[18] wl1[19] wl2[19] wl1[20] wl2[20] wl1[21] wl2[21] wl1[22] wl2[22] wl1[23] wl2[23] wl1[24] wl2[24] wl1[25] wl2[25] wl1[26] wl2[26] wl1[27] wl2[27] wl1[28] wl2[28] wl1[29] wl2[29] wl1[30] wl2[30] wl1[31] wl2[31] bl1[0] bl1_n[0] bl2[0] bl2_n[0] bl1[1] bl1_n[1] bl2[1] bl2_n[1] bl1[2] bl1_n[2] bl2[2] bl2_n[2] bl1[3] bl1_n[3] bl2[3] bl2_n[3] bl1[4] bl1_n[4] bl2[4] bl2_n[4] bl1[5] bl1_n[5] bl2[5] bl2_n[5] bl1[6] bl1_n[6] bl2[6] bl2_n[6] bl1[7] bl1_n[7] bl2[7] bl2_n[7] bl1[8] bl1_n[8] bl2[8] bl2_n[8] bl1[9] bl1_n[9] bl2[9] bl2_n[9] bl1[10] bl1_n[10] bl2[10] bl2_n[10] bl1[11] bl1_n[11] bl2[11] bl2_n[11] bl1[12] bl1_n[12] bl2[12] bl2_n[12] bl1[13] bl1_n[13] bl2[13] bl2_n[13] bl1[14] bl1_n[14] bl2[14] bl2_n[14] bl1[15] bl1_n[15] bl2[15] bl2_n[15] bl1[16] bl1_n[16] bl2[16] bl2_n[16] bl1[17] bl1_n[17] bl2[17] bl2_n[17] bl1[18] bl1_n[18] bl2[18] bl2_n[18] bl1[19] bl1_n[19] bl2[19] bl2_n[19] bl1[20] bl1_n[20] bl2[20] bl2_n[20] bl1[21] bl1_n[21] bl2[21] bl2_n[21] bl1[22] bl1_n[22] bl2[22] bl2_n[22] bl1[23] bl1_n[23] bl2[23] bl2_n[23] bl1[24] bl1_n[24] bl2[24] bl2_n[24] bl1[25] bl1_n[25] bl2[25] bl2_n[25] bl1[26] bl1_n[26] bl2[26] bl2_n[26] bl1[27] bl1_n[27] bl2[27] bl2_n[27] bl1[28] bl1_n[28] bl2[28] bl2_n[28] bl1[29] bl1_n[29] bl2[29] bl2_n[29] bl1[30] bl1_n[30] bl2[30] bl2_n[30] bl1[31] bl1_n[31] bl2[31] bl2_n[31] DP8TArray_32X32
Xinst1x0 vss vdd wl1[32] wl2[32] wl1[33] wl2[33] wl1[34] wl2[34] wl1[35] wl2[35] wl1[36] wl2[36] wl1[37] wl2[37] wl1[38] wl2[38] wl1[39] wl2[39] wl1[40] wl2[40] wl1[41] wl2[41] wl1[42] wl2[42] wl1[43] wl2[43] wl1[44] wl2[44] wl1[45] wl2[45] wl1[46] wl2[46] wl1[47] wl2[47] wl1[48] wl2[48] wl1[49] wl2[49] wl1[50] wl2[50] wl1[51] wl2[51] wl1[52] wl2[52] wl1[53] wl2[53] wl1[54] wl2[54] wl1[55] wl2[55] wl1[56] wl2[56] wl1[57] wl2[57] wl1[58] wl2[58] wl1[59] wl2[59] wl1[60] wl2[60] wl1[61] wl2[61] wl1[62] wl2[62] wl1[63] wl2[63] bl1[0] bl1_n[0] bl2[0] bl2_n[0] bl1[1] bl1_n[1] bl2[1] bl2_n[1] bl1[2] bl1_n[2] bl2[2] bl2_n[2] bl1[3] bl1_n[3] bl2[3] bl2_n[3] bl1[4] bl1_n[4] bl2[4] bl2_n[4] bl1[5] bl1_n[5] bl2[5] bl2_n[5] bl1[6] bl1_n[6] bl2[6] bl2_n[6] bl1[7] bl1_n[7] bl2[7] bl2_n[7] bl1[8] bl1_n[8] bl2[8] bl2_n[8] bl1[9] bl1_n[9] bl2[9] bl2_n[9] bl1[10] bl1_n[10] bl2[10] bl2_n[10] bl1[11] bl1_n[11] bl2[11] bl2_n[11] bl1[12] bl1_n[12] bl2[12] bl2_n[12] bl1[13] bl1_n[13] bl2[13] bl2_n[13] bl1[14] bl1_n[14] bl2[14] bl2_n[14] bl1[15] bl1_n[15] bl2[15] bl2_n[15] bl1[16] bl1_n[16] bl2[16] bl2_n[16] bl1[17] bl1_n[17] bl2[17] bl2_n[17] bl1[18] bl1_n[18] bl2[18] bl2_n[18] bl1[19] bl1_n[19] bl2[19] bl2_n[19] bl1[20] bl1_n[20] bl2[20] bl2_n[20] bl1[21] bl1_n[21] bl2[21] bl2_n[21] bl1[22] bl1_n[22] bl2[22] bl2_n[22] bl1[23] bl1_n[23] bl2[23] bl2_n[23] bl1[24] bl1_n[24] bl2[24] bl2_n[24] bl1[25] bl1_n[25] bl2[25] bl2_n[25] bl1[26] bl1_n[26] bl2[26] bl2_n[26] bl1[27] bl1_n[27] bl2[27] bl2_n[27] bl1[28] bl1_n[28] bl2[28] bl2_n[28] bl1[29] bl1_n[29] bl2[29] bl2_n[29] bl1[30] bl1_n[30] bl2[30] bl2_n[30] bl1[31] bl1_n[31] bl2[31] bl2_n[31] DP8TArray_32X32
.ends DP8TArray_64X32
* DP8TColumnPeriphery_8B4M_bl2
.subckt DP8TColumnPeriphery_8B4M_bl2 vss vdd clk precharge_n we we_en q[0] d[0] bl[0] bl_n[0] bl[1] bl_n[1] bl[2] bl_n[2] bl[3] bl_n[3] q[1] d[1] bl[4] bl_n[4] bl[5] bl_n[5] bl[6] bl_n[6] bl[7] bl_n[7] q[2] d[2] bl[8] bl_n[8] bl[9] bl_n[9] bl[10] bl_n[10] bl[11] bl_n[11] q[3] d[3] bl[12] bl_n[12] bl[13] bl_n[13] bl[14] bl_n[14] bl[15] bl_n[15] q[4] d[4] bl[16] bl_n[16] bl[17] bl_n[17] bl[18] bl_n[18] bl[19] bl_n[19] q[5] d[5] bl[20] bl_n[20] bl[21] bl_n[21] bl[22] bl_n[22] bl[23] bl_n[23] q[6] d[6] bl[24] bl_n[24] bl[25] bl_n[25] bl[26] bl_n[26] bl[27] bl_n[27] q[7] d[7] bl[28] bl_n[28] bl[29] bl_n[29] bl[30] bl_n[30] bl[31] bl_n[31] mux[0] mux[1] mux[2] mux[3]
Xprecharge[0] vdd bl[0] bl_n[0] precharge_n DP8TPrecharge_bl2
Xprecharge[1] vdd bl[1] bl_n[1] precharge_n DP8TPrecharge_bl2
Xprecharge[2] vdd bl[2] bl_n[2] precharge_n DP8TPrecharge_bl2
Xprecharge[3] vdd bl[3] bl_n[3] precharge_n DP8TPrecharge_bl2
Xprecharge[4] vdd bl[4] bl_n[4] precharge_n DP8TPrecharge_bl2
Xprecharge[5] vdd bl[5] bl_n[5] precharge_n DP8TPrecharge_bl2
Xprecharge[6] vdd bl[6] bl_n[6] precharge_n DP8TPrecharge_bl2
Xprecharge[7] vdd bl[7] bl_n[7] precharge_n DP8TPrecharge_bl2
Xprecharge[8] vdd bl[8] bl_n[8] precharge_n DP8TPrecharge_bl2
Xprecharge[9] vdd bl[9] bl_n[9] precharge_n DP8TPrecharge_bl2
Xprecharge[10] vdd bl[10] bl_n[10] precharge_n DP8TPrecharge_bl2
Xprecharge[11] vdd bl[11] bl_n[11] precharge_n DP8TPrecharge_bl2
Xprecharge[12] vdd bl[12] bl_n[12] precharge_n DP8TPrecharge_bl2
Xprecharge[13] vdd bl[13] bl_n[13] precharge_n DP8TPrecharge_bl2
Xprecharge[14] vdd bl[14] bl_n[14] precharge_n DP8TPrecharge_bl2
Xprecharge[15] vdd bl[15] bl_n[15] precharge_n DP8TPrecharge_bl2
Xprecharge[16] vdd bl[16] bl_n[16] precharge_n DP8TPrecharge_bl2
Xprecharge[17] vdd bl[17] bl_n[17] precharge_n DP8TPrecharge_bl2
Xprecharge[18] vdd bl[18] bl_n[18] precharge_n DP8TPrecharge_bl2
Xprecharge[19] vdd bl[19] bl_n[19] precharge_n DP8TPrecharge_bl2
Xprecharge[20] vdd bl[20] bl_n[20] precharge_n DP8TPrecharge_bl2
Xprecharge[21] vdd bl[21] bl_n[21] precharge_n DP8TPrecharge_bl2
Xprecharge[22] vdd bl[22] bl_n[22] precharge_n DP8TPrecharge_bl2
Xprecharge[23] vdd bl[23] bl_n[23] precharge_n DP8TPrecharge_bl2
Xprecharge[24] vdd bl[24] bl_n[24] precharge_n DP8TPrecharge_bl2
Xprecharge[25] vdd bl[25] bl_n[25] precharge_n DP8TPrecharge_bl2
Xprecharge[26] vdd bl[26] bl_n[26] precharge_n DP8TPrecharge_bl2
Xprecharge[27] vdd bl[27] bl_n[27] precharge_n DP8TPrecharge_bl2
Xprecharge[28] vdd bl[28] bl_n[28] precharge_n DP8TPrecharge_bl2
Xprecharge[29] vdd bl[29] bl_n[29] precharge_n DP8TPrecharge_bl2
Xprecharge[30] vdd bl[30] bl_n[30] precharge_n DP8TPrecharge_bl2
Xprecharge[31] vdd bl[31] bl_n[31] precharge_n DP8TPrecharge_bl2
Xcolmux[0] bl[0] bl_n[0] mux[0] bl[1] bl_n[1] mux[1] bl[2] bl_n[2] mux[2] bl[3] bl_n[3] mux[3] vss muxbl[0] muxbl_n[0] DP8TColMux_4C_bl2
Xcolmux[1] bl[4] bl_n[4] mux[0] bl[5] bl_n[5] mux[1] bl[6] bl_n[6] mux[2] bl[7] bl_n[7] mux[3] vss muxbl[1] muxbl_n[1] DP8TColMux_4C_bl2
Xcolmux[2] bl[8] bl_n[8] mux[0] bl[9] bl_n[9] mux[1] bl[10] bl_n[10] mux[2] bl[11] bl_n[11] mux[3] vss muxbl[2] muxbl_n[2] DP8TColMux_4C_bl2