* ExampleSRAMs

* SP6TBlock_512x64_8WE
.subckt SP6TBlock_512x64_8WE clk a[0] a[1] a[2] a[3] a[4] a[5] a[6] a[7] a[8] vss vdd q[0] q[1] q[2] q[3] q[4] q[5] q[6] q[7] q[8] q[9] q[10] q[11] q[12] q[13] q[14] q[15] q[16] q[17] q[18] q[19] q[20] q[21] q[22] q[23] q[24] q[25] q[26] q[27] q[28] q[29] q[30] q[31] q[32] q[33] q[34] q[35] q[36] q[37] q[38] q[39] q[40] q[41] q[42] q[43] q[44] q[45] q[46] q[47] q[48] q[49] q[50] q[51] q[52] q[53] q[54] q[55] q[56] q[57] q[58] q[59] q[60] q[61] q[62] q[63] d[0] d[1] d[2] d[3] d[4] d[5] d[6] d[7] d[8] d[9] d[10] d[11] d[12] d[13] d[14] d[15] d[16] d[17] d[18] d[19] d[20] d[21] d[22] d[23] d[24] d[25] d[26] d[27] d[28] d[29] d[30] d[31] d[32] d[33] d[34] d[35] d[36] d[37] d[38] d[39] d[40] d[41] d[42] d[43] d[44] d[45] d[46] d[47] d[48] d[49] d[50] d[51] d[52] d[53] d[54] d[55] d[56] d[57] d[58] d[59] d[60] d[61] d[62] d[63] we[0] we[1] we[2] we[3] we[4] we[5] we[6] we[7]
Xrowperiph vss vdd clk a[0] a[1] a[2] a[3] a[4] a[5] a[6] a[7] a[8] wl[0] wl[1] wl[2] wl[3] wl[4] wl[5] wl[6] wl[7] wl[8] wl[9] wl[10] wl[11] wl[12] wl[13] wl[14] wl[15] wl[16] wl[17] wl[18] wl[19] wl[20] wl[21] wl[22] wl[23] wl[24] wl[25] wl[26] wl[27] wl[28] wl[29] wl[30] wl[31] wl[32] wl[33] wl[34] wl[35] wl[36] wl[37] wl[38] wl[39] wl[40] wl[41] wl[42] wl[43] wl[44] wl[45] wl[46] wl[47] wl[48] wl[49] wl[50] wl[51] wl[52] wl[53] wl[54] wl[55] wl[56] wl[57] wl[58] wl[59] wl[60] wl[61] wl[62] wl[63] wl[64] wl[65] wl[66] wl[67] wl[68] wl[69] wl[70] wl[71] wl[72] wl[73] wl[74] wl[75] wl[76] wl[77] wl[78] wl[79] wl[80] wl[81] wl[82] wl[83] wl[84] wl[85] wl[86] wl[87] wl[88] wl[89] wl[90] wl[91] wl[92] wl[93] wl[94] wl[95] wl[96] wl[97] wl[98] wl[99] wl[100] wl[101] wl[102] wl[103] wl[104] wl[105] wl[106] wl[107] wl[108] wl[109] wl[110] wl[111] wl[112] wl[113] wl[114] wl[115] wl[116] wl[117] wl[118] wl[119] wl[120] wl[121] wl[122] wl[123] wl[124] wl[125] wl[126] wl[127] mux[0] mux[1] mux[2] mux[3] columnclk precharge_n we_en SP6TRowPeriphery_3_4_2
Xcolumnblock vss vdd columnclk precharge_n we_en wl[0] wl[1] wl[2] wl[3] wl[4] wl[5] wl[6] wl[7] wl[8] wl[9] wl[10] wl[11] wl[12] wl[13] wl[14] wl[15] wl[16] wl[17] wl[18] wl[19] wl[20] wl[21] wl[22] wl[23] wl[24] wl[25] wl[26] wl[27] wl[28] wl[29] wl[30] wl[31] wl[32] wl[33] wl[34] wl[35] wl[36] wl[37] wl[38] wl[39] wl[40] wl[41] wl[42] wl[43] wl[44] wl[45] wl[46] wl[47] wl[48] wl[49] wl[50] wl[51] wl[52] wl[53] wl[54] wl[55] wl[56] wl[57] wl[58] wl[59] wl[60] wl[61] wl[62] wl[63] wl[64] wl[65] wl[66] wl[67] wl[68] wl[69] wl[70] wl[71] wl[72] wl[73] wl[74] wl[75] wl[76] wl[77] wl[78] wl[79] wl[80] wl[81] wl[82] wl[83] wl[84] wl[85] wl[86] wl[87] wl[88] wl[89] wl[90] wl[91] wl[92] wl[93] wl[94] wl[95] wl[96] wl[97] wl[98] wl[99] wl[100] wl[101] wl[102] wl[103] wl[104] wl[105] wl[106] wl[107] wl[108] wl[109] wl[110] wl[111] wl[112] wl[113] wl[114] wl[115] wl[116] wl[117] wl[118] wl[119] wl[120] wl[121] wl[122] wl[123] wl[124] wl[125] wl[126] wl[127] mux[0] mux[1] mux[2] mux[3] we[0] q[0] d[0] q[1] d[1] q[2] d[2] q[3] d[3] q[4] d[4] q[5] d[5] q[6] d[6] q[7] d[7] we[1] q[8] d[8] q[9] d[9] q[10] d[10] q[11] d[11] q[12] d[12] q[13] d[13] q[14] d[14] q[15] d[15] we[2] q[16] d[16] q[17] d[17] q[18] d[18] q[19] d[19] q[20] d[20] q[21] d[21] q[22] d[22] q[23] d[23] we[3] q[24] d[24] q[25] d[25] q[26] d[26] q[27] d[27] q[28] d[28] q[29] d[29] q[30] d[30] q[31] d[31] we[4] q[32] d[32] q[33] d[33] q[34] d[34] q[35] d[35] q[36] d[36] q[37] d[37] q[38] d[38] q[39] d[39] we[5] q[40] d[40] q[41] d[41] q[42] d[42] q[43] d[43] q[44] d[44] q[45] d[45] q[46] d[46] q[47] d[47] we[6] q[48] d[48] q[49] d[49] q[50] d[50] q[51] d[51] q[52] d[52] q[53] d[53] q[54] d[54] q[55] d[55] we[7] q[56] d[56] q[57] d[57] q[58] d[58] q[59] d[59] q[60] d[60] q[61] d[61] q[62] d[62] q[63] d[63] SP6TColumnBlock_128R64B4M8W
.ends SP6TBlock_512x64_8WE

* SP6TRowPeriphery_3_4_2
.subckt SP6TRowPeriphery_3_4_2 vss vdd clk a[0] a[1] a[2] a[3] a[4] a[5] a[6] a[7] a[8] wl[0] wl[1] wl[2] wl[3] wl[4] wl[5] wl[6] wl[7] wl[8] wl[9] wl[10] wl[11] wl[12] wl[13] wl[14] wl[15] wl[16] wl[17] wl[18] wl[19] wl[20] wl[21] wl[22] wl[23] wl[24] wl[25] wl[26] wl[27] wl[28] wl[29] wl[30] wl[31] wl[32] wl[33] wl[34] wl[35] wl[36] wl[37] wl[38] wl[39] wl[40] wl[41] wl[42] wl[43] wl[44] wl[45] wl[46] wl[47] wl[48] wl[49] wl[50] wl[51] wl[52] wl[53] wl[54] wl[55] wl[56] wl[57] wl[58] wl[59] wl[60] wl[61] wl[62] wl[63] wl[64] wl[65] wl[66] wl[67] wl[68] wl[69] wl[70] wl[71] wl[72] wl[73] wl[74] wl[75] wl[76] wl[77] wl[78] wl[79] wl[80] wl[81] wl[82] wl[83] wl[84] wl[85] wl[86] wl[87] wl[88] wl[89] wl[90] wl[91] wl[92] wl[93] wl[94] wl[95] wl[96] wl[97] wl[98] wl[99] wl[100] wl[101] wl[102] wl[103] wl[104] wl[105] wl[106] wl[107] wl[108] wl[109] wl[110] wl[111] wl[112] wl[113] wl[114] wl[115] wl[116] wl[117] wl[118] wl[119] wl[120] wl[121] wl[122] wl[123] wl[124] wl[125] wl[126] wl[127] mux[0] mux[1] mux[2] mux[3] columnclk precharge_n we_en
Xclkgen vss vdd clk decodeclk columnclk precharge_n wl_en we_en SP6TClockGenerator
Xcoldec vss vdd decodeclk a[0] a[1] mux[0] mux[1] mux[2] mux[3] SP6TLatchedDecoder_2A2R
Xrowdec vss vdd a[2] a[3] a[4] a[5] a[6] a[7] a[8] decodeclk wl_en wl[0] wl[1] wl[2] wl[3] wl[4] wl[5] wl[6] wl[7] wl[8] wl[9] wl[10] wl[11] wl[12] wl[13] wl[14] wl[15] wl[16] wl[17] wl[18] wl[19] wl[20] wl[21] wl[22] wl[23] wl[24] wl[25] wl[26] wl[27] wl[28] wl[29] wl[30] wl[31] wl[32] wl[33] wl[34] wl[35] wl[36] wl[37] wl[38] wl[39] wl[40] wl[41] wl[42] wl[43] wl[44] wl[45] wl[46] wl[47] wl[48] wl[49] wl[50] wl[51] wl[52] wl[53] wl[54] wl[55] wl[56] wl[57] wl[58] wl[59] wl[60] wl[61] wl[62] wl[63] wl[64] wl[65] wl[66] wl[67] wl[68] wl[69] wl[70] wl[71] wl[72] wl[73] wl[74] wl[75] wl[76] wl[77] wl[78] wl[79] wl[80] wl[81] wl[82] wl[83] wl[84] wl[85] wl[86] wl[87] wl[88] wl[89] wl[90] wl[91] wl[92] wl[93] wl[94] wl[95] wl[96] wl[97] wl[98] wl[99] wl[100] wl[101] wl[102] wl[103] wl[104] wl[105] wl[106] wl[107] wl[108] wl[109] wl[110] wl[111] wl[112] wl[113] wl[114] wl[115] wl[116] wl[117] wl[118] wl[119] wl[120] wl[121] wl[122] wl[123] wl[124] wl[125] wl[126] wl[127] SP6TRowDecoder_3_4B
.ends SP6TRowPeriphery_3_4_2

* SP6TColumn_128R8B4M
.subckt SP6TColumn_128R8B4M vss vdd wl[0] wl[1] wl[2] wl[3] wl[4] wl[5] wl[6] wl[7] wl[8] wl[9] wl[10] wl[11] wl[12] wl[13] wl[14] wl[15] wl[16] wl[17] wl[18] wl[19] wl[20] wl[21] wl[22] wl[23] wl[24] wl[25] wl[26] wl[27] wl[28] wl[29] wl[30] wl[31] wl[32] wl[33] wl[34] wl[35] wl[36] wl[37] wl[38] wl[39] wl[40] wl[41] wl[42] wl[43] wl[44] wl[45] wl[46] wl[47] wl[48] wl[49] wl[50] wl[51] wl[52] wl[53] wl[54] wl[55] wl[56] wl[57] wl[58] wl[59] wl[60] wl[61] wl[62] wl[63] wl[64] wl[65] wl[66] wl[67] wl[68] wl[69] wl[70] wl[71] wl[72] wl[73] wl[74] wl[75] wl[76] wl[77] wl[78] wl[79] wl[80] wl[81] wl[82] wl[83] wl[84] wl[85] wl[86] wl[87] wl[88] wl[89] wl[90] wl[91] wl[92] wl[93] wl[94] wl[95] wl[96] wl[97] wl[98] wl[99] wl[100] wl[101] wl[102] wl[103] wl[104] wl[105] wl[106] wl[107] wl[108] wl[109] wl[110] wl[111] wl[112] wl[113] wl[114] wl[115] wl[116] wl[117] wl[118] wl[119] wl[120] wl[121] wl[122] wl[123] wl[124] wl[125] wl[126] wl[127] q[0] d[0] q[1] d[1] q[2] d[2] q[3] d[3] q[4] d[4] q[5] d[5] q[6] d[6] q[7] d[7] we clk we_en precharge_n mux[0] mux[1] mux[2] mux[3]
Xarray vss vdd wl[0] wl[1] wl[2] wl[3] wl[4] wl[5] wl[6] wl[7] wl[8] wl[9] wl[10] wl[11] wl[12] wl[13] wl[14] wl[15] wl[16] wl[17] wl[18] wl[19] wl[20] wl[21] wl[22] wl[23] wl[24] wl[25] wl[26] wl[27] wl[28] wl[29] wl[30] wl[31] wl[32] wl[33] wl[34] wl[35] wl[36] wl[37] wl[38] wl[39] wl[40] wl[41] wl[42] wl[43] wl[44] wl[45] wl[46] wl[47] wl[48] wl[49] wl[50] wl[51] wl[52] wl[53] wl[54] wl[55] wl[56] wl[57] wl[58] wl[59] wl[60] wl[61] wl[62] wl[63] wl[64] wl[65] wl[66] wl[67] wl[68] wl[69] wl[70] wl[71] wl[72] wl[73] wl[74] wl[75] wl[76] wl[77] wl[78] wl[79] wl[80] wl[81] wl[82] wl[83] wl[84] wl[85] wl[86] wl[87] wl[88] wl[89] wl[90] wl[91] wl[92] wl[93] wl[94] wl[95] wl[96] wl[97] wl[98] wl[99] wl[100] wl[101] wl[102] wl[103] wl[104] wl[105] wl[106] wl[107] wl[108] wl[109] wl[110] wl[111] wl[112] wl[113] wl[114] wl[115] wl[116] wl[117] wl[118] wl[119] wl[120] wl[121] wl[122] wl[123] wl[124] wl[125] wl[126] wl[127] bl[0] bl_n[0] bl[1] bl_n[1] bl[2] bl_n[2] bl[3] bl_n[3] bl[4] bl_n[4] bl[5] bl_n[5] bl[6] bl_n[6] bl[7] bl_n[7] bl[8] bl_n[8] bl[9] bl_n[9] bl[10] bl_n[10] bl[11] bl_n[11] bl[12] bl_n[12] bl[13] bl_n[13] bl[14] bl_n[14] bl[15] bl_n[15] bl[16] bl_n[16] bl[17] bl_n[17] bl[18] bl_n[18] bl[19] bl_n[19] bl[20] bl_n[20] bl[21] bl_n[21] bl[22] bl_n[22] bl[23] bl_n[23] bl[24] bl_n[24] bl[25] bl_n[25] bl[26] bl_n[26] bl[27] bl_n[27] bl[28] bl_n[28] bl[29] bl_n[29] bl[30] bl_n[30] bl[31] bl_n[31] SP6TArray_128X32
Xperiph vss vdd clk precharge_n we we_en q[0] d[0] bl[0] bl_n[0] bl[1] bl_n[1] bl[2] bl_n[2] bl[3] bl_n[3] q[1] d[1] bl[4] bl_n[4] bl[5] bl_n[5] bl[6] bl_n[6] bl[7] bl_n[7] q[2] d[2] bl[8] bl_n[8] bl[9] bl_n[9] bl[10] bl_n[10] bl[11] bl_n[11] q[3] d[3] bl[12] bl_n[12] bl[13] bl_n[13] bl[14] bl_n[14] bl[15] bl_n[15] q[4] d[4] bl[16] bl_n[16] bl[17] bl_n[17] bl[18] bl_n[18] bl[19] bl_n[19] q[5] d[5] bl[20] bl_n[20] bl[21] bl_n[21] bl[22] bl_n[22] bl[23] bl_n[23] q[6] d[6] bl[24] bl_n[24] bl[25] bl_n[25] bl[26] bl_n[26] bl[27] bl_n[27] q[7] d[7] bl[28] bl_n[28] bl[29] bl_n[29] bl[30] bl_n[30] bl[31] bl_n[31] mux[0] mux[1] mux[2] mux[3] SP6TColumnPeriphery_8B4M
.ends SP6TColumn_128R8B4M

* SP6TColumnBlock_128R64B4M8W
.subckt SP6TColumnBlock_128R64B4M8W vss vdd clk precharge_n we_en wl[0] wl[1] wl[2] wl[3] wl[4] wl[5] wl[6] wl[7] wl[8] wl[9] wl[10] wl[11] wl[12] wl[13] wl[14] wl[15] wl[16] wl[17] wl[18] wl[19] wl[20] wl[21] wl[22] wl[23] wl[24] wl[25] wl[26] wl[27] wl[28] wl[29] wl[30] wl[31] wl[32] wl[33] wl[34] wl[35] wl[36] wl[37] wl[38] wl[39] wl[40] wl[41] wl[42] wl[43] wl[44] wl[45] wl[46] wl[47] wl[48] wl[49] wl[50] wl[51] wl[52] wl[53] wl[54] wl[55] wl[56] wl[57] wl[58] wl[59] wl[60] wl[61] wl[62] wl[63] wl[64] wl[65] wl[66] wl[67] wl[68] wl[69] wl[70] wl[71] wl[72] wl[73] wl[74] wl[75] wl[76] wl[77] wl[78] wl[79] wl[80] wl[81] wl[82] wl[83] wl[84] wl[85] wl[86] wl[87] wl[88] wl[89] wl[90] wl[91] wl[92] wl[93] wl[94] wl[95] wl[96] wl[97] wl[98] wl[99] wl[100] wl[101] wl[102] wl[103] wl[104] wl[105] wl[106] wl[107] wl[108] wl[109] wl[110] wl[111] wl[112] wl[113] wl[114] wl[115] wl[116] wl[117] wl[118] wl[119] wl[120] wl[121] wl[122] wl[123] wl[124] wl[125] wl[126] wl[127] mux[0] mux[1] mux[2] mux[3] we[0] q[0] d[0] q[1] d[1] q[2] d[2] q[3] d[3] q[4] d[4] q[5] d[5] q[6] d[6] q[7] d[7] we[1] q[8] d[8] q[9] d[9] q[10] d[10] q[11] d[11] q[12] d[12] q[13] d[13] q[14] d[14] q[15] d[15] we[2] q[16] d[16] q[17] d[17] q[18] d[18] q[19] d[19] q[20] d[20] q[21] d[21] q[22] d[22] q[23] d[23] we[3] q[24] d[24] q[25] d[25] q[26] d[26] q[27] d[27] q[28] d[28] q[29] d[29] q[30] d[30] q[31] d[31] we[4] q[32] d[32] q[33] d[33] q[34] d[34] q[35] d[35] q[36] d[36] q[37] d[37] q[38] d[38] q[39] d[39] we[5] q[40] d[40] q[41] d[41] q[42] d[42] q[43] d[43] q[44] d[44] q[45] d[45] q[46] d[46] q[47] d[47] we[6] q[48] d[48] q[49] d[49] q[50] d[50] q[51] d[51] q[52] d[52] q[53] d[53] q[54] d[54] q[55] d[55] we[7] q[56] d[56] q[57] d[57] q[58] d[58] q[59] d[59] q[60] d[60] q[61] d[61] q[62] d[62] q[63] d[63]
Xcolumn[0] vss vdd wl[0] wl[1] wl[2] wl[3] wl[4] wl[5] wl[6] wl[7] wl[8] wl[9] wl[10] wl[11] wl[12] wl[13] wl[14] wl[15] wl[16] wl[17] wl[18] wl[19] wl[20] wl[21] wl[22] wl[23] wl[24] wl[25] wl[26] wl[27] wl[28] wl[29] wl[30] wl[31] wl[32] wl[33] wl[34] wl[35] wl[36] wl[37] wl[38] wl[39] wl[40] wl[41] wl[42] wl[43] wl[44] wl[45] wl[46] wl[47] wl[48] wl[49] wl[50] wl[51] wl[52] wl[53] wl[54] wl[55] wl[56] wl[57] wl[58] wl[59] wl[60] wl[61] wl[62] wl[63] wl[64] wl[65] wl[66] wl[67] wl[68] wl[69] wl[70] wl[71] wl[72] wl[73] wl[74] wl[75] wl[76] wl[77] wl[78] wl[79] wl[80] wl[81] wl[82] wl[83] wl[84] wl[85] wl[86] wl[87] wl[88] wl[89] wl[90] wl[91] wl[92] wl[93] wl[94] wl[95] wl[96] wl[97] wl[98] wl[99] wl[100] wl[101] wl[102] wl[103] wl[104] wl[105] wl[106] wl[107] wl[108] wl[109] wl[110] wl[111] wl[112] wl[113] wl[114] wl[115] wl[116] wl[117] wl[118] wl[119] wl[120] wl[121] wl[122] wl[123] wl[124] wl[125] wl[126] wl[127] q[0] d[0] q[1] d[1] q[2] d[2] q[3] d[3] q[4] d[4] q[5] d[5] q[6] d[6] q[7] d[7] we[0] clk we_en precharge_n mux[0] mux[1] mux[2] mux[3] SP6TColumn_128R8B4M
Xcolumn[1] vss vdd wl[0] wl[1] wl[2] wl[3] wl[4] wl[5] wl[6] wl[7] wl[8] wl[9] wl[10] wl[11] wl[12] wl[13] wl[14] wl[15] wl[16] wl[17] wl[18] wl[19] wl[20] wl[21] wl[22] wl[23] wl[24] wl[25] wl[26] wl[27] wl[28] wl[29] wl[30] wl[31] wl[32] wl[33] wl[34] wl[35] wl[36] wl[37] wl[38] wl[39] wl[40] wl[41] wl[42] wl[43] wl[44] wl[45] wl[46] wl[47] wl[48] wl[49] wl[50] wl[51] wl[52] wl[53] wl[54] wl[55] wl[56] wl[57] wl[58] wl[59] wl[60] wl[61] wl[62] wl[63] wl[64] wl[65] wl[66] wl[67] wl[68] wl[69] wl[70] wl[71] wl[72] wl[73] wl[74] wl[75] wl[76] wl[77] wl[78] wl[79] wl[80] wl[81] wl[82] wl[83] wl[84] wl[85] wl[86] wl[87] wl[88] wl[89] wl[90] wl[91] wl[92] wl[93] wl[94] wl[95] wl[96] wl[97] wl[98] wl[99] wl[100] wl[101] wl[102] wl[103] wl[104] wl[105] wl[106] wl[107] wl[108] wl[109] wl[110] wl[111] wl[112] wl[113] wl[114] wl[115] wl[116] wl[117] wl[118] wl[119] wl[120] wl[121] wl[122] wl[123] wl[124] wl[125] wl[126] wl[127] q[8] d[8] q[9] d[9] q[10] d[10] q[11] d[11] q[12] d[12] q[13] d[13] q[14] d[14] q[15] d[15] we[1] clk we_en precharge_n mux[0] mux[1] mux[2] mux[3] SP6TColumn_128R8B4M
Xcolumn[2] vss vdd wl[0] wl[1] wl[2] wl[3] wl[4] wl[5] wl[6] wl[7] wl[8] wl[9] wl[10] wl[11] wl[12] wl[13] wl[14] wl[15] wl[16] wl[17] wl[18] wl[19] wl[20] wl[21] wl[22] wl[23] wl[24] wl[25] wl[26] wl[27] wl[28] wl[29] wl[30] wl[31] wl[32] wl[33] wl[34] wl[35] wl[36] wl[37] wl[38] wl[39] wl[40] wl[41] wl[42] wl[43] wl[44] wl[45] wl[46] wl[47] wl[48] wl[49] wl[50] wl[51] wl[52] wl[53] wl[54] wl[55] wl[56] wl[57] wl[58] wl[59] wl[60] wl[61] wl[62] wl[63] wl[64] wl[65] wl[66] wl[67] wl[68] wl[69] wl[70] wl[71] wl[72] wl[73] wl[74] wl[75] wl[76] wl[77] wl[78] wl[79] wl[80] wl[81] wl[82] wl[83] wl[84] wl[85] wl[86] wl[87] wl[88] wl[89] wl[90] wl[91] wl[92] wl[93] wl[94] wl[95] wl[96] wl[97] wl[98] wl[99] wl[100] wl[101] wl[102] wl[103] wl[104] wl[105] wl[106] wl[107] wl[108] wl[109] wl[110] wl[111] wl[112] wl[113] wl[114] wl[115] wl[116] wl[117] wl[118] wl[119] wl[120] wl[121] wl[122] wl[123] wl[124] wl[125] wl[126] wl[127] q[16] d[16] q[17] d[17] q[18] d[18] q[19] d[19] q[20] d[20] q[21] d[21] q[22] d[22] q[23] d[23] we[2] clk we_en precharge_n mux[0] mux[1] mux[2] mux[3] SP6TColumn_128R8B4M
Xcolumn[3] vss vdd wl[0] wl[1] wl[2] wl[3] wl[4] wl[5] wl[6] wl[7] wl[8] wl[9] wl[10] wl[11] wl[12] wl[13] wl[14] wl[15] wl[16] wl[17] wl[18] wl[19] wl[20] wl[21] wl[22] wl[23] wl[24] wl[25] wl[26] wl[27] wl[28] wl[29] wl[30] wl[31] wl[32] wl[33] wl[34] wl[35] wl[36] wl[37] wl[38] wl[39] wl[40] wl[41] wl[42] wl[43] wl[44] wl[45] wl[46] wl[47] wl[48] wl[49] wl[50] wl[51] wl[52] wl[53] wl[54] wl[55] wl[56] wl[57] wl[58] wl[59] wl[60] wl[61] wl[62] wl[63] wl[64] wl[65] wl[66] wl[67] wl[68] wl[69] wl[70] wl[71] wl[72] wl[73] wl[74] wl[75] wl[76] wl[77] wl[78] wl[79] wl[80] wl[81] wl[82] wl[83] wl[84] wl[85] wl[86] wl[87] wl[88] wl[89] wl[90] wl[91] wl[92] wl[93] wl[94] wl[95] wl[96] wl[97] wl[98] wl[99] wl[100] wl[101] wl[102] wl[103] wl[104] wl[105] wl[106] wl[107] wl[108] wl[109] wl[110] wl[111] wl[112] wl[113] wl[114] wl[115] wl[116] wl[117] wl[118] wl[119] wl[120] wl[121] wl[122] wl[123] wl[124] wl[125] wl[126] wl[127] q[24] d[24] q[25] d[25] q[26] d[26] q[27] d[27] q[28] d[28] q[29] d[29] q[30] d[30] q[31] d[31] we[3] clk we_en precharge_n mux[0] mux[1] mux[2] mux[3] SP6TColumn_128R8B4M
Xcolumn[4] vss vdd wl[0] wl[1] wl[2] wl[3] wl[4] wl[5] wl[6] wl[7] wl[8] wl[9] wl[10] wl[11] wl[12] wl[13] wl[14] wl[15] wl[16] wl[17] wl[18] wl[19] wl[20] wl[21] wl[22] wl[23] wl[24] wl[25] wl[26] wl[27] wl[28] wl[29] wl[30] wl[31] wl[32] wl[33] wl[34] wl[35] wl[36] wl[37] wl[38] wl[39] wl[40] wl[41] wl[42] wl[43] wl[44] wl[45] wl[46] wl[47] wl[48] wl[49] wl[50] wl[51] wl[52] wl[53] wl[54] wl[55] wl[56] wl[57] wl[58] wl[59] wl[60] wl[61] wl[62] wl[63] wl[64] wl[65] wl[66] wl[67] wl[68] wl[69] wl[70] wl[71] wl[72] wl[73] wl[74] wl[75] wl[76] wl[77] wl[78] wl[79] wl[80] wl[81] wl[82] wl[83] wl[84] wl[85] wl[86] wl[87] wl[88] wl[89] wl[90] wl[91] wl[92] wl[93] wl[94] wl[95] wl[96] wl[97] wl[98] wl[99] wl[100] wl[101] wl[102] wl[103] wl[104] wl[105] wl[106] wl[107] wl[108] wl[109] wl[110] wl[111] wl[112] wl[113] wl[114] wl[115] wl[116] wl[117] wl[118] wl[119] wl[120] wl[121] wl[122] wl[123] wl[124] wl[125] wl[126] wl[127] q[32] d[32] q[33] d[33] q[34] d[34] q[35] d[35] q[36] d[36] q[37] d[37] q[38] d[38] q[39] d[39] we[4] clk we_en precharge_n mux[0] mux[1] mux[2] mux[3] SP6TColumn_128R8B4M
Xcolumn[5] vss vdd wl[0] wl[1] wl[2] wl[3] wl[4] wl[5] wl[6] wl[7] wl[8] wl[9] wl[10] wl[11] wl[12] wl[13] wl[14] wl[15] wl[16] wl[17] wl[18] wl[19] wl[20] wl[21] wl[22] wl[23] wl[24] wl[25] wl[26] wl[27] wl[28] wl[29] wl[30] wl[31] wl[32] wl[33] wl[34] wl[35] wl[36] wl[37] wl[38] wl[39] wl[40] wl[41] wl[42] wl[43] wl[44] wl[45] wl[46] wl[47] wl[48] wl[49] wl[50] wl[51] wl[52] wl[53] wl[54] wl[55] wl[56] wl[57] wl[58] wl[59] wl[60] wl[61] wl[62] wl[63] wl[64] wl[65] wl[66] wl[67] wl[68] wl[69] wl[70] wl[71] wl[72] wl[73] wl[74] wl[75] wl[76] wl[77] wl[78] wl[79] wl[80] wl[81] wl[82] wl[83] wl[84] wl[85] wl[86] wl[87] wl[88] wl[89] wl[90] wl[91] wl[92] wl[93] wl[94] wl[95] wl[96] wl[97] wl[98] wl[99] wl[100] wl[101] wl[102] wl[103] wl[104] wl[105] wl[106] wl[107] wl[108] wl[109] wl[110] wl[111] wl[112] wl[113] wl[114] wl[115] wl[116] wl[117] wl[118] wl[119] wl[120] wl[121] wl[122] wl[123] wl[124] wl[125] wl[126] wl[127] q[40] d[40] q[41] d[41] q[42] d[42] q[43] d[43] q[44] d[44] q[45] d[45] q[46] d[46] q[47] d[47] we[5] clk we_en precharge_n mux[0] mux[1] mux[2] mux[3] SP6TColumn_128R8B4M
Xcolumn[6] vss vdd wl[0] wl[1] wl[2] wl[3] wl[4] wl[5] wl[6] wl[7] wl[8] wl[9] wl[10] wl[11] wl[12] wl[13] wl[14] wl[15] wl[16] wl[17] wl[18] wl[19] wl[20] wl[21] wl[22] wl[23] wl[24] wl[25] wl[26] wl[27] wl[28] wl[29] wl[30] wl[31] wl[32] wl[33] wl[34] wl[35] wl[36] wl[37] wl[38] wl[39] wl[40] wl[41] wl[42] wl[43] wl[44] wl[45] wl[46] wl[47] wl[48] wl[49] wl[50] wl[51] wl[52] wl[53] wl[54] wl[55] wl[56] wl[57] wl[58] wl[59] wl[60] wl[61] wl[62] wl[63] wl[64] wl[65] wl[66] wl[67] wl[68] wl[69] wl[70] wl[71] wl[72] wl[73] wl[74] wl[75] wl[76] wl[77] wl[78] wl[79] wl[80] wl[81] wl[82] wl[83] wl[84] wl[85] wl[86] wl[87] wl[88] wl[89] wl[90] wl[91] wl[92] wl[93] wl[94] wl[95] wl[96] wl[97] wl[98] wl[99] wl[100] wl[101] wl[102] wl[103] wl[104] wl[105] wl[106] wl[107] wl[108] wl[109] wl[110] wl[111] wl[112] wl[113] wl[114] wl[115] wl[116] wl[117] wl[118] wl[119] wl[120] wl[121] wl[122] wl[123] wl[124] wl[125] wl[126] wl[127] q[48] d[48] q[49] d[49] q[50] d[50] q[51] d[51] q[52] d[52] q[53] d[53] q[54] d[54] q[55] d[55] we[6] clk we_en precharge_n mux[0] mux[1] mux[2] mux[3] SP6TColumn_128R8B4M
Xcolumn[7] vss vdd wl[0] wl[1] wl[2] wl[3] wl[4] wl[5] wl[6] wl[7] wl[8] wl[9] wl[10] wl[11] wl[12] wl[13] wl[14] wl[15] wl[16] wl[17] wl[18] wl[19] wl[20] wl[21] wl[22] wl[23] wl[24] wl[25] wl[26] wl[27] wl[28] wl[29] wl[30] wl[31] wl[32] wl[33] wl[34] wl[35] wl[36] wl[37] wl[38] wl[39] wl[40] wl[41] wl[42] wl[43] wl[44] wl[45] wl[46] wl[47] wl[48] wl[49] wl[50] wl[51] wl[52] wl[53] wl[54] wl[55] wl[56] wl[57] wl[58] wl[59] wl[60] wl[61] wl[62] wl[63] wl[64] wl[65] wl[66] wl[67] wl[68] wl[69] wl[70] wl[71] wl[72] wl[73] wl[74] wl[75] wl[76] wl[77] wl[78] wl[79] wl[80] wl[81] wl[82] wl[83] wl[84] wl[85] wl[86] wl[87] wl[88] wl[89] wl[90] wl[91] wl[92] wl[93] wl[94] wl[95] wl[96] wl[97] wl[98] wl[99] wl[100] wl[101] wl[102] wl[103] wl[104] wl[105] wl[106] wl[107] wl[108] wl[109] wl[110] wl[111] wl[112] wl[113] wl[114] wl[115] wl[116] wl[117] wl[118] wl[119] wl[120] wl[121] wl[122] wl[123] wl[124] wl[125] wl[126] wl[127] q[56] d[56] q[57] d[57] q[58] d[58] q[59] d[59] q[60] d[60] q[61] d[61] q[62] d[62] q[63] d[63] we[7] clk we_en precharge_n mux[0] mux[1] mux[2] mux[3] SP6TColumn_128R8B4M
.ends SP6TColumnBlock_128R64B4M8W

* SP6TClockGenerator
.subckt SP6TClockGenerator vss vdd clk decodeclk columnclk precharge_n wl_en we_en
Xnonovl vss vdd clk firststage[0] firststage[1] firststage[2] firststage[3] firststage[4] firststage[5] firststage[6] firstpulse firststage[8] secondstage[0] secondstage[1] secondstage[2] secondstage[3] secondstage[4] secondstage[5] secondstage[6] secondpulse secondstage[8] SP6TNonOverlapClock_8S
Xdecodeclkbuf vdd vss clk decodeclk buf_x2
Xcolumnclkbuf vdd vss clk columnclk buf_x2
Xwlenbuf vdd vss firstpulse wl_en buf_x2
Xweenbuf vdd vss firstpulse we_en buf_x2
Xprechargeinv vdd vss secondpulse precharge_n inv_x2
.ends SP6TClockGenerator

* SP6TLatchedDecoder_2A2R
.subckt SP6TLatchedDecoder_2A2R vss vdd clk a[0] a[1] line[0] line[1] line[2] line[3]
Xaff[0] vdd clk vss a[0] aint[0] sff1_x4
Xaff[1] vdd clk vss a[1] aint[1] sff1_x4
Xainv[0] vdd vss aint[0] aint_n[0] inv_x1
Xainv[1] vdd vss aint[1] aint_n[1] inv_x1
Xlinenand[0] vdd vss line_n[0] aint_n[0] aint_n[1] nand2_x0
Xlinenand[1] vdd vss line_n[1] aint[0] aint_n[1] nand2_x0
Xlinenand[2] vdd vss line_n[2] aint_n[0] aint[1] nand2_x0
Xlinenand[3] vdd vss line_n[3] aint[0] aint[1] nand2_x0
Xlineinv[0] vdd vss line_n[0] line[0] inv_x2
Xlineinv[1] vdd vss line_n[1] line[1] inv_x2
Xlineinv[2] vdd vss line_n[2] line[2] inv_x2
Xlineinv[3] vdd vss line_n[3] line[3] inv_x2
.ends SP6TLatchedDecoder_2A2R

* SP6TRowDecoder_3_4B
.subckt SP6TRowDecoder_3_4B vss vdd a[0] a[1] a[2] a[3] a[4] a[5] a[6] clk wl_en wl[0] wl[1] wl[2] wl[3] wl[4] wl[5] wl[6] wl[7] wl[8] wl[9] wl[10] wl[11] wl[12] wl[13] wl[14] wl[15] wl[16] wl[17] wl[18] wl[19] wl[20] wl[21] wl[22] wl[23] wl[24] wl[25] wl[26] wl[27] wl[28] wl[29] wl[30] wl[31] wl[32] wl[33] wl[34] wl[35] wl[36] wl[37] wl[38] wl[39] wl[40] wl[41] wl[42] wl[43] wl[44] wl[45] wl[46] wl[47] wl[48] wl[49] wl[50] wl[51] wl[52] wl[53] wl[54] wl[55] wl[56] wl[57] wl[58] wl[59] wl[60] wl[61] wl[62] wl[63] wl[64] wl[65] wl[66] wl[67] wl[68] wl[69] wl[70] wl[71] wl[72] wl[73] wl[74] wl[75] wl[76] wl[77] wl[78] wl[79] wl[80] wl[81] wl[82] wl[83] wl[84] wl[85] wl[86] wl[87] wl[88] wl[89] wl[90] wl[91] wl[92] wl[93] wl[94] wl[95] wl[96] wl[97] wl[98] wl[99] wl[100] wl[101] wl[102] wl[103] wl[104] wl[105] wl[106] wl[107] wl[108] wl[109] wl[110] wl[111] wl[112] wl[113] wl[114] wl[115] wl[116] wl[117] wl[118] wl[119] wl[120] wl[121] wl[122] wl[123] wl[124] wl[125] wl[126] wl[127]
Xpredec vss vdd clk a[0] a[1] a[2] a[3] a[4] a[5] a[6] pd[0][0] pd[0][1] pd[0][2] pd[0][3] pd[0][4] pd[0][5] pd[0][6] pd[0][7] pd[1][0] pd[1][1] pd[1][2] pd[1][3] pd[1][4] pd[1][5] pd[1][6] pd[1][7] pd[1][8] pd[1][9] pd[1][10] pd[1][11] pd[1][12] pd[1][13] pd[1][14] pd[1][15] SP6TRowPredecoders_3_4B
Xpage[0] vss vdd pd[0][0] wl[0] pd[0][1] wl[1] pd[0][2] wl[2] pd[0][3] wl[3] pd[0][4] wl[4] pd[0][5] wl[5] pd[0][6] wl[6] pd[0][7] wl[7] pd[1][0] wl_en SP6TRowDecoderDriverPage_2PD8R
Xpage[1] vss vdd pd[0][0] wl[8] pd[0][1] wl[9] pd[0][2] wl[10] pd[0][3] wl[11] pd[0][4] wl[12] pd[0][5] wl[13] pd[0][6] wl[14] pd[0][7] wl[15] pd[1][1] wl_en SP6TRowDecoderDriverPage_2PD8R
Xpage[2] vss vdd pd[0][0] wl[16] pd[0][1] wl[17] pd[0][2] wl[18] pd[0][3] wl[19] pd[0][4] wl[20] pd[0][5] wl[21] pd[0][6] wl[22] pd[0][7] wl[23] pd[1][2] wl_en SP6TRowDecoderDriverPage_2PD8R
Xpage[3] vss vdd pd[0][0] wl[24] pd[0][1] wl[25] pd[0][2] wl[26] pd[0][3] wl[27] pd[0][4] wl[28] pd[0][5] wl[29] pd[0][6] wl[30] pd[0][7] wl[31] pd[1][3] wl_en SP6TRowDecoderDriverPage_2PD8R
Xpage[4] vss vdd pd[0][0] wl[32] pd[0][1] wl[33] pd[0][2] wl[34] pd[0][3] wl[35] pd[0][4] wl[36] pd[0][5] wl[37] pd[0][6] wl[38] pd[0][7] wl[39] pd[1][4] wl_en SP6TRowDecoderDriverPage_2PD8R
Xpage[5] vss vdd pd[0][0] wl[40] pd[0][1] wl[41] pd[0][2] wl[42] pd[0][3] wl[43] pd[0][4] wl[44] pd[0][5] wl[45] pd[0][6] wl[46] pd[0][7] wl[47] pd[1][5] wl_en SP6TRowDecoderDriverPage_2PD8R
Xpage[6] vss vdd pd[0][0] wl[48] pd[0][1] wl[49] pd[0][2] wl[50] pd[0][3] wl[51] pd[0][4] wl[52] pd[0][5] wl[53] pd[0][6] wl[54] pd[0][7] wl[55] pd[1][6] wl_en SP6TRowDecoderDriverPage_2PD8R
Xpage[7] vss vdd pd[0][0] wl[56] pd[0][1] wl[57] pd[0][2] wl[58] pd[0][3] wl[59] pd[0][4] wl[60] pd[0][5] wl[61] pd[0][6] wl[62] pd[0][7] wl[63] pd[1][7] wl_en SP6TRowDecoderDriverPage_2PD8R
Xpage[8] vss vdd pd[0][0] wl[64] pd[0][1] wl[65] pd[0][2] wl[66] pd[0][3] wl[67] pd[0][4] wl[68] pd[0][5] wl[69] pd[0][6] wl[70] pd[0][7] wl[71] pd[1][8] wl_en SP6TRowDecoderDriverPage_2PD8R
Xpage[9] vss vdd pd[0][0] wl[72] pd[0][1] wl[73] pd[0][2] wl[74] pd[0][3] wl[75] pd[0][4] wl[76] pd[0][5] wl[77] pd[0][6] wl[78] pd[0][7] wl[79] pd[1][9] wl_en SP6TRowDecoderDriverPage_2PD8R
Xpage[10] vss vdd pd[0][0] wl[80] pd[0][1] wl[81] pd[0][2] wl[82] pd[0][3] wl[83] pd[0][4] wl[84] pd[0][5] wl[85] pd[0][6] wl[86] pd[0][7] wl[87] pd[1][10] wl_en SP6TRowDecoderDriverPage_2PD8R
Xpage[11] vss vdd pd[0][0] wl[88] pd[0][1] wl[89] pd[0][2] wl[90] pd[0][3] wl[91] pd[0][4] wl[92] pd[0][5] wl[93] pd[0][6] wl[94] pd[0][7] wl[95] pd[1][11] wl_en SP6TRowDecoderDriverPage_2PD8R
Xpage[12] vss vdd pd[0][0] wl[96] pd[0][1] wl[97] pd[0][2] wl[98] pd[0][3] wl[99] pd[0][4] wl[100] pd[0][5] wl[101] pd[0][6] wl[102] pd[0][7] wl[103] pd[1][12] wl_en SP6TRowDecoderDriverPage_2PD8R
Xpage[13] vss vdd pd[0][0] wl[104] pd[0][1] wl[105] pd[0][2] wl[106] pd[0][3] wl[107] pd[0][4] wl[108] pd[0][5] wl[109] pd[0][6] wl[110] pd[0][7] wl[111] pd[1][13] wl_en SP6TRowDecoderDriverPage_2PD8R
Xpage[14] vss vdd pd[0][0] wl[112] pd[0][1] wl[113] pd[0][2] wl[114] pd[0][3] wl[115] pd[0][4] wl[116] pd[0][5] wl[117] pd[0][6] wl[118] pd[0][7] wl[119] pd[1][14] wl_en SP6TRowDecoderDriverPage_2PD8R
Xpage[15] vss vdd pd[0][0] wl[120] pd[0][1] wl[121] pd[0][2] wl[122] pd[0][3] wl[123] pd[0][4] wl[124] pd[0][5] wl[125] pd[0][6] wl[126] pd[0][7] wl[127] pd[1][15] wl_en SP6TRowDecoderDriverPage_2PD8R
.ends SP6TRowDecoder_3_4B

* SP6TNonOverlapClock_8S
.subckt SP6TNonOverlapClock_8S vss vdd clk firststage[0] firststage[1] firststage[2] firststage[3] firststage[4] firststage[5] firststage[6] firststage[7] firststage[8] secondstage[0] secondstage[1] secondstage[2] secondstage[3] secondstage[4] secondstage[5] secondstage[6] secondstage[7] secondstage[8]
Xclkinv vdd vss clk clk_n inv_x0
Xfirstnand2 vdd vss firststage[0] clk secondstage[8] nand2_x0
Xfirststage[0] vdd vss firststage[0] firststage[1] inv_x0
Xfirststage[1] vdd vss firststage[1] firststage[2] inv_x0
Xfirststage[2] vdd vss firststage[2] firststage[3] inv_x0
Xfirststage[3] vdd vss firststage[3] firststage[4] inv_x0
Xfirststage[4] vdd vss firststage[4] firststage[5] inv_x0
Xfirststage[5] vdd vss firststage[5] firststage[6] inv_x0
Xfirststage[6] vdd vss firststage[6] firststage[7] inv_x0
Xfirststage[7] vdd vss firststage[7] firststage[8] inv_x0
Xsecondnand2 vdd vss secondstage[0] clk_n firststage[8] nand2_x0
Xsecondstage[0] vdd vss secondstage[0] secondstage[1] inv_x0
Xsecondstage[1] vdd vss secondstage[1] secondstage[2] inv_x0
Xsecondstage[2] vdd vss secondstage[2] secondstage[3] inv_x0
Xsecondstage[3] vdd vss secondstage[3] secondstage[4] inv_x0
Xsecondstage[4] vdd vss secondstage[4] secondstage[5] inv_x0
Xsecondstage[5] vdd vss secondstage[5] secondstage[6] inv_x0
Xsecondstage[6] vdd vss secondstage[6] secondstage[7] inv_x0
Xsecondstage[7] vdd vss secondstage[7] secondstage[8] inv_x0
.ends SP6TNonOverlapClock_8S

* SP6TRowPredecoders_3_4B
.subckt SP6TRowPredecoders_3_4B vss vdd clk a[0] a[1] a[2] a[3] a[4] a[5] a[6] pd[0][0] pd[0][1] pd[0][2] pd[0][3] pd[0][4] pd[0][5] pd[0][6] pd[0][7] pd[1][0] pd[1][1] pd[1][2] pd[1][3] pd[1][4] pd[1][5] pd[1][6] pd[1][7] pd[1][8] pd[1][9] pd[1][10] pd[1][11] pd[1][12] pd[1][13] pd[1][14] pd[1][15]
Xaff[0] vdd clk vss a[0] aint[0] sff1_x4
Xaff[1] vdd clk vss a[1] aint[1] sff1_x4
Xaff[2] vdd clk vss a[2] aint[2] sff1_x4
Xaff[3] vdd clk vss a[3] aint[3] sff1_x4
Xaff[4] vdd clk vss a[4] aint[4] sff1_x4
Xaff[5] vdd clk vss a[5] aint[5] sff1_x4
Xaff[6] vdd clk vss a[6] aint[6] sff1_x4
Xainv[0] vdd vss aint[0] aint_n[0] inv_x1
Xainv[1] vdd vss aint[1] aint_n[1] inv_x1
Xainv[2] vdd vss aint[2] aint_n[2] inv_x1
Xainv[3] vdd vss aint[3] aint_n[3] inv_x1
Xainv[4] vdd vss aint[4] aint_n[4] inv_x1
Xainv[5] vdd vss aint[5] aint_n[5] inv_x1
Xainv[6] vdd vss aint[6] aint_n[6] inv_x1
Xpd[0]and[0] vdd pd[0][0] vss aint_n[0] aint_n[1] aint_n[2] a3_x2
Xpd[0]and[1] vdd pd[0][1] vss aint[0] aint_n[1] aint_n[2] a3_x2
Xpd[0]and[2] vdd pd[0][2] vss aint_n[0] aint[1] aint_n[2] a3_x2
Xpd[0]and[3] vdd pd[0][3] vss aint[0] aint[1] aint_n[2] a3_x2
Xpd[0]and[4] vdd pd[0][4] vss aint_n[0] aint_n[1] aint[2] a3_x2
Xpd[0]and[5] vdd pd[0][5] vss aint[0] aint_n[1] aint[2] a3_x2
Xpd[0]and[6] vdd pd[0][6] vss aint_n[0] aint[1] aint[2] a3_x2
Xpd[0]and[7] vdd pd[0][7] vss aint[0] aint[1] aint[2] a3_x2
Xpd[1]and[0] vss pd[1][0] vdd aint_n[3] aint_n[4] aint_n[5] aint_n[6] a4_x2
Xpd[1]and[1] vss pd[1][1] vdd aint[3] aint_n[4] aint_n[5] aint_n[6] a4_x2
Xpd[1]and[2] vss pd[1][2] vdd aint_n[3] aint[4] aint_n[5] aint_n[6] a4_x2
Xpd[1]and[3] vss pd[1][3] vdd aint[3] aint[4] aint_n[5] aint_n[6] a4_x2
Xpd[1]and[4] vss pd[1][4] vdd aint_n[3] aint_n[4] aint[5] aint_n[6] a4_x2
Xpd[1]and[5] vss pd[1][5] vdd aint[3] aint_n[4] aint[5] aint_n[6] a4_x2
Xpd[1]and[6] vss pd[1][6] vdd aint_n[3] aint[4] aint[5] aint_n[6] a4_x2
Xpd[1]and[7] vss pd[1][7] vdd aint[3] aint[4] aint[5] aint_n[6] a4_x2
Xpd[1]and[8] vss pd[1][8] vdd aint_n[3] aint_n[4] aint_n[5] aint[6] a4_x2
Xpd[1]and[9] vss pd[1][9] vdd aint[3] aint_n[4] aint_n[5] aint[6] a4_x2
Xpd[1]and[10] vss pd[1][10] vdd aint_n[3] aint[4] aint_n[5] aint[6] a4_x2
Xpd[1]and[11] vss pd[1][11] vdd aint[3] aint[4] aint_n[5] aint[6] a4_x2
Xpd[1]and[12] vss pd[1][12] vdd aint_n[3] aint_n[4] aint[5] aint[6] a4_x2
Xpd[1]and[13] vss pd[1][13] vdd aint[3] aint_n[4] aint[5] aint[6] a4_x2
Xpd[1]and[14] vss pd[1][14] vdd aint_n[3] aint[4] aint[5] aint[6] a4_x2
Xpd[1]and[15] vss pd[1][15] vdd aint[3] aint[4] aint[5] aint[6] a4_x2
Xtie[0] vdd vss tie_diff_w4
Xtie[1] vdd vss tie_diff_w4
Xtie[2] vdd vss tie_diff_w4
Xtie[3] vdd vss tie_diff_w4