* Coriolis Structural SPICE Driver
* Generated on Mar 31, 2022, 12:58
* Cell/Subckt "cmpt_cpu".
* 
* INTERF     2  we.
* INTERF     3  vss.
* INTERF     4  vdd.
* INTERF    21  reset.
* INTERF    23  rdy.
* INTERF    48  nmi.
* INTERF    53  irq.
* INTERF    69  do(7).
* INTERF    70  do(6).
* INTERF    71  do(5).
* INTERF    72  do(4).
* INTERF    73  do(3).
* INTERF    74  do(2).
* INTERF    75  do(1).
* INTERF    76  do(0).
* INTERF    93  di(7).
* INTERF    94  di(6).
* INTERF    95  di(5).
* INTERF    96  di(4).
* INTERF    97  di(3).
* INTERF    98  di(2).
* INTERF    99  di(1).
* INTERF   100  di(0).
* INTERF   108  clk.
* INTERF  1665  ab(9).
* INTERF  1666  ab(8).
* INTERF  1667  ab(7).
* INTERF  1668  ab(6).
* INTERF  1669  ab(5).
* INTERF  1670  ab(4).
* INTERF  1671  ab(3).
* INTERF  1672  ab(2).
* INTERF  1673  ab(15).
* INTERF  1674  ab(14).
* INTERF  1675  ab(13).
* INTERF  1676  ab(12).
* INTERF  1677  ab(11).
* INTERF  1678  ab(10).
* INTERF  1679  ab(1).
* INTERF  1680  ab(0).

.subckt cmpt_cpu 2 3 4 21 23 48 53 69 70 71 72 73 74 75 76 93 94 95 96 97 98 99 100 108 1665 1666 1667 1668 1669 1670 1671 1672 1673 1674 1675 1676 1677 1678 1679 1680
* NET     0  z.
* NET     1  write_back.
* NET     2  we.
* NET     3  vss.
* NET     4  vdd.
* NET     5  v.
* NET     6  store.
* NET     7  state(5).
* NET     8  state(4).
* NET     9  state(3).
* NET    10  state(2).
* NET    11  state(1).
* NET    12  state(0).
* NET    13  src_reg(1).
* NET    14  src_reg(0).
* NET    15  shift_right.
* NET    16  shift.
* NET    17  sei.
* NET    18  sed.
* NET    19  sec.
* NET    20  rotate.
* NET    21  reset.
* NET    22  res.
* NET    23  rdy.
* NET    24  plp.
* NET    25  php.
* NET    26  pc(9).
* NET    27  pc(8).
* NET    28  pc(7).
* NET    29  pc(6).
* NET    30  pc(5).
* NET    31  pc(4).
* NET    32  pc(3).
* NET    33  pc(2).
* NET    34  pc(15).
* NET    35  pc(14).
* NET    36  pc(13).
* NET    37  pc(12).
* NET    38  pc(11).
* NET    39  pc(10).
* NET    40  pc(1).
* NET    41  pc(0).
* NET    42  op(3).
* NET    43  op(2).
* NET    44  op(1).
* NET    45  op(0).
* NET    46  nmi_edge.
* NET    47  nmi_1.
* NET    48  nmi.
* NET    49  n0_adj_bcd_0_0.
* NET    50  n.
* NET    51  load_reg.
* NET    52  load_only.
* NET    53  irq.
* NET    54  irhold_valid.
* NET    55  irhold(7).
* NET    56  irhold(6).
* NET    57  irhold(5).
* NET    58  irhold(4).
* NET    59  irhold(3).
* NET    60  irhold(2).
* NET    61  irhold(1).
* NET    62  irhold(0).
* NET    63  index_y.
* NET    64  inc.
* NET    65  i.
* NET    66  hc.
* NET    67  dst_reg(1).
* NET    68  dst_reg(0).
* NET    69  do(7).
* NET    70  do(6).
* NET    71  do(5).
* NET    72  do(4).
* NET    73  do(3).
* NET    74  do(2).
* NET    75  do(1).
* NET    76  do(0).
* NET    77  dimux(7).
* NET    78  dimux(6).
* NET    79  dimux(5).
* NET    80  dimux(4).
* NET    81  dimux(3).
* NET    82  dimux(2).
* NET    83  dimux(1).
* NET    84  dimux(0).
* NET    85  dihold(7).
* NET    86  dihold(6).
* NET    87  dihold(5).
* NET    88  dihold(4).
* NET    89  dihold(3).
* NET    90  dihold(2).
* NET    91  dihold(1).
* NET    92  dihold(0).
* NET    93  di(7).
* NET    94  di(6).
* NET    95  di(5).
* NET    96  di(4).
* NET    97  di(3).
* NET    98  di(2).
* NET    99  di(1).
* NET   100  di(0).
* NET   101  d.
* NET   102  cond_code(2).
* NET   103  cond_code(1).
* NET   104  cond_code(0).
* NET   105  compare.
* NET   106  co.
* NET   107  clv.
* NET   108  clk.
* NET   109  cli.
* NET   110  cld.
* NET   111  clc.
* NET   112  ci.
* NET   113  c.
* NET   114  bit_ins.
* NET   115  bi(7).
* NET   116  bi(6).
* NET   117  bi(5).
* NET   118  bi(4).
* NET   119  bi(3).
* NET   120  bi(2).
* NET   121  bi(1).
* NET   122  bi(0).
* NET   123  backwards.
* NET   124  az.
* NET   125  axys_3_7.
* NET   126  axys_3_6.
* NET   127  axys_3_5.
* NET   128  axys_3_4.
* NET   129  axys_3_3.
* NET   130  axys_3_2.
* NET   131  axys_3_1.
* NET   132  axys_3_0.
* NET   133  axys_2_7.
* NET   134  axys_2_6.
* NET   135  axys_2_5.
* NET   136  axys_2_4.
* NET   137  axys_2_3.
* NET   138  axys_2_2.
* NET   139  axys_2_1.
* NET   140  axys_2_0.
* NET   141  axys_1_7.
* NET   142  axys_1_6.
* NET   143  axys_1_5.
* NET   144  axys_1_4.
* NET   145  axys_1_3.
* NET   146  axys_1_2.
* NET   147  axys_1_1.
* NET   148  axys_1_0.
* NET   149  axys_0_7.
* NET   150  axys_0_6.
* NET   151  axys_0_5.
* NET   152  axys_0_4.
* NET   153  axys_0_3.
* NET   154  axys_0_2.
* NET   155  axys_0_1.
* NET   156  axys_0_0.
* NET   157  av.
* NET   158  auto_fsm_map_cc_288_map_fsm_1405_y(5).
* NET   159  auto_fsm_map_cc_288_map_fsm_1405_y(4).
* NET   160  auto_fsm_map_cc_288_map_fsm_1405_y(3).
* NET   161  auto_fsm_map_cc_288_map_fsm_1405_y(2).
* NET   162  auto_fsm_map_cc_288_map_fsm_1405_y(1).
* NET   163  auto_fsm_map_cc_288_map_fsm_1405_y(0).
* NET   164  alu_shift_right.
* NET   165  alu_op(3).
* NET   166  alu_op(2).
* NET   167  alu_op(1).
* NET   168  alu_op(0).
* NET   169  ai(7).
* NET   170  ai(6).
* NET   171  ai(5).
* NET   172  ai(4).
* NET   173  ai(3).
* NET   174  ai(2).
* NET   175  ai(1).
* NET   176  ai(0).
* NET   177  adj_bcd.
* NET   178  add(7).
* NET   179  add(6).
* NET   180  add(5).
* NET   181  add(4).
* NET   182  add(3).
* NET   183  add(2).
* NET   184  add(1).
* NET   185  add(0).
* NET   186  adc_sbc.
* NET   187  adc_bcd.
* NET   188  abl(7).
* NET   189  abl(6).
* NET   190  abl(5).
* NET   191  abl(4).
* NET   192  abl(3).
* NET   193  abl(2).
* NET   194  abl(1).
* NET   195  abl(0).
* NET   196  abh(7).
* NET   197  abh(6).
* NET   198  abh(5).
* NET   199  abh(4).
* NET   200  abh(3).
* NET   201  abh(2).
* NET   202  abh(1).
* NET   203  abh(0).
* NET   204  abc_12118_new_n999.
* NET   205  abc_12118_new_n998.
* NET   206  abc_12118_new_n997.
* NET   207  abc_12118_new_n996.
* NET   208  abc_12118_new_n995.
* NET   209  abc_12118_new_n994.
* NET   210  abc_12118_new_n993.
* NET   211  abc_12118_new_n992.
* NET   212  abc_12118_new_n991.
* NET   213  abc_12118_new_n990.
* NET   214  abc_12118_new_n989.
* NET   215  abc_12118_new_n988.
* NET   216  abc_12118_new_n987.
* NET   217  abc_12118_new_n986.
* NET   218  abc_12118_new_n985.
* NET   219  abc_12118_new_n984.
* NET   220  abc_12118_new_n983.
* NET   221  abc_12118_new_n982.
* NET   222  abc_12118_new_n981.
* NET   223  abc_12118_new_n980.
* NET   224  abc_12118_new_n979.
* NET   225  abc_12118_new_n978.
* NET   226  abc_12118_new_n977.
* NET   227  abc_12118_new_n976.
* NET   228  abc_12118_new_n975.
* NET   229  abc_12118_new_n974.
* NET   230  abc_12118_new_n973.
* NET   231  abc_12118_new_n972.
* NET   232  abc_12118_new_n970.
* NET   233  abc_12118_new_n969.
* NET   234  abc_12118_new_n967.
* NET   235  abc_12118_new_n966.
* NET   236  abc_12118_new_n964.
* NET   237  abc_12118_new_n963.
* NET   238  abc_12118_new_n961.
* NET   239  abc_12118_new_n960.
* NET   240  abc_12118_new_n958.
* NET   241  abc_12118_new_n957.
* NET   242  abc_12118_new_n955.
* NET   243  abc_12118_new_n954.
* NET   244  abc_12118_new_n952.
* NET   245  abc_12118_new_n951.
* NET   246  abc_12118_new_n949.
* NET   247  abc_12118_new_n948.
* NET   248  abc_12118_new_n947.
* NET   249  abc_12118_new_n946.
* NET   250  abc_12118_new_n945.
* NET   251  abc_12118_new_n944.
* NET   252  abc_12118_new_n943.
* NET   253  abc_12118_new_n942.
* NET   254  abc_12118_new_n941.
* NET   255  abc_12118_new_n940.
* NET   256  abc_12118_new_n939.
* NET   257  abc_12118_new_n938.
* NET   258  abc_12118_new_n937.
* NET   259  abc_12118_new_n936.
* NET   260  abc_12118_new_n934.
* NET   261  abc_12118_new_n933.
* NET   262  abc_12118_new_n932.
* NET   263  abc_12118_new_n931.
* NET   264  abc_12118_new_n930.
* NET   265  abc_12118_new_n929.
* NET   266  abc_12118_new_n928.
* NET   267  abc_12118_new_n927.
* NET   268  abc_12118_new_n926.
* NET   269  abc_12118_new_n925.
* NET   270  abc_12118_new_n924.
* NET   271  abc_12118_new_n923.
* NET   272  abc_12118_new_n922.
* NET   273  abc_12118_new_n921.
* NET   274  abc_12118_new_n920.
* NET   275  abc_12118_new_n919.
* NET   276  abc_12118_new_n918.
* NET   277  abc_12118_new_n917.
* NET   278  abc_12118_new_n915.
* NET   279  abc_12118_new_n914.
* NET   280  abc_12118_new_n913.
* NET   281  abc_12118_new_n912.
* NET   282  abc_12118_new_n911.
* NET   283  abc_12118_new_n910.
* NET   284  abc_12118_new_n909.
* NET   285  abc_12118_new_n908.
* NET   286  abc_12118_new_n907.
* NET   287  abc_12118_new_n906.
* NET   288  abc_12118_new_n905.
* NET   289  abc_12118_new_n904.
* NET   290  abc_12118_new_n903.
* NET   291  abc_12118_new_n902.
* NET   292  abc_12118_new_n900.
* NET   293  abc_12118_new_n899.
* NET   294  abc_12118_new_n898.
* NET   295  abc_12118_new_n897.
* NET   296  abc_12118_new_n896.
* NET   297  abc_12118_new_n895.
* NET   298  abc_12118_new_n894.
* NET   299  abc_12118_new_n892.
* NET   300  abc_12118_new_n891.
* NET   301  abc_12118_new_n890.
* NET   302  abc_12118_new_n889.
* NET   303  abc_12118_new_n888.
* NET   304  abc_12118_new_n887.
* NET   305  abc_12118_new_n886.
* NET   306  abc_12118_new_n885.
* NET   307  abc_12118_new_n884.
* NET   308  abc_12118_new_n883.
* NET   309  abc_12118_new_n882.
* NET   310  abc_12118_new_n881.
* NET   311  abc_12118_new_n880.
* NET   312  abc_12118_new_n879.
* NET   313  abc_12118_new_n878.
* NET   314  abc_12118_new_n877.
* NET   315  abc_12118_new_n876.
* NET   316  abc_12118_new_n875.
* NET   317  abc_12118_new_n874.
* NET   318  abc_12118_new_n873.
* NET   319  abc_12118_new_n872.
* NET   320  abc_12118_new_n871.
* NET   321  abc_12118_new_n870.
* NET   322  abc_12118_new_n869.
* NET   323  abc_12118_new_n868.
* NET   324  abc_12118_new_n866.
* NET   325  abc_12118_new_n865.
* NET   326  abc_12118_new_n864.
* NET   327  abc_12118_new_n863.
* NET   328  abc_12118_new_n862.
* NET   329  abc_12118_new_n861.
* NET   330  abc_12118_new_n860.
* NET   331  abc_12118_new_n859.
* NET   332  abc_12118_new_n858.
* NET   333  abc_12118_new_n857.
* NET   334  abc_12118_new_n856.
* NET   335  abc_12118_new_n855.
* NET   336  abc_12118_new_n854.
* NET   337  abc_12118_new_n853.
* NET   338  abc_12118_new_n852.
* NET   339  abc_12118_new_n851.
* NET   340  abc_12118_new_n850.
* NET   341  abc_12118_new_n849.
* NET   342  abc_12118_new_n848.
* NET   343  abc_12118_new_n847.
* NET   344  abc_12118_new_n846.
* NET   345  abc_12118_new_n845.
* NET   346  abc_12118_new_n844.
* NET   347  abc_12118_new_n843.
* NET   348  abc_12118_new_n842.
* NET   349  abc_12118_new_n841.
* NET   350  abc_12118_new_n840.
* NET   351  abc_12118_new_n839.
* NET   352  abc_12118_new_n838.
* NET   353  abc_12118_new_n837.
* NET   354  abc_12118_new_n836.
* NET   355  abc_12118_new_n835.
* NET   356  abc_12118_new_n834.
* NET   357  abc_12118_new_n833.
* NET   358  abc_12118_new_n832.
* NET   359  abc_12118_new_n831.
* NET   360  abc_12118_new_n830.
* NET   361  abc_12118_new_n829.
* NET   362  abc_12118_new_n828.
* NET   363  abc_12118_new_n827.
* NET   364  abc_12118_new_n826.
* NET   365  abc_12118_new_n825.
* NET   366  abc_12118_new_n824.
* NET   367  abc_12118_new_n823.
* NET   368  abc_12118_new_n822.
* NET   369  abc_12118_new_n821.
* NET   370  abc_12118_new_n820.
* NET   371  abc_12118_new_n819.
* NET   372  abc_12118_new_n818.
* NET   373  abc_12118_new_n817.
* NET   374  abc_12118_new_n816.
* NET   375  abc_12118_new_n815.
* NET   376  abc_12118_new_n814.
* NET   377  abc_12118_new_n813.
* NET   378  abc_12118_new_n812.
* NET   379  abc_12118_new_n810.
* NET   380  abc_12118_new_n809.
* NET   381  abc_12118_new_n808.
* NET   382  abc_12118_new_n807.
* NET   383  abc_12118_new_n806.
* NET   384  abc_12118_new_n805.
* NET   385  abc_12118_new_n804.
* NET   386  abc_12118_new_n803.
* NET   387  abc_12118_new_n802.
* NET   388  abc_12118_new_n801.
* NET   389  abc_12118_new_n800.
* NET   390  abc_12118_new_n799.
* NET   391  abc_12118_new_n798.
* NET   392  abc_12118_new_n797.
* NET   393  abc_12118_new_n796.
* NET   394  abc_12118_new_n795.
* NET   395  abc_12118_new_n794.
* NET   396  abc_12118_new_n793.
* NET   397  abc_12118_new_n792.
* NET   398  abc_12118_new_n791.
* NET   399  abc_12118_new_n790.
* NET   400  abc_12118_new_n789.
* NET   401  abc_12118_new_n788.
* NET   402  abc_12118_new_n787.
* NET   403  abc_12118_new_n786.
* NET   404  abc_12118_new_n785.
* NET   405  abc_12118_new_n784.
* NET   406  abc_12118_new_n783.
* NET   407  abc_12118_new_n782.
* NET   408  abc_12118_new_n781.
* NET   409  abc_12118_new_n780.
* NET   410  abc_12118_new_n779.
* NET   411  abc_12118_new_n778.
* NET   412  abc_12118_new_n777.
* NET   413  abc_12118_new_n776.
* NET   414  abc_12118_new_n775.
* NET   415  abc_12118_new_n774.
* NET   416  abc_12118_new_n773.
* NET   417  abc_12118_new_n772.
* NET   418  abc_12118_new_n771.
* NET   419  abc_12118_new_n770.
* NET   420  abc_12118_new_n769.
* NET   421  abc_12118_new_n768.
* NET   422  abc_12118_new_n767.
* NET   423  abc_12118_new_n766.
* NET   424  abc_12118_new_n765.
* NET   425  abc_12118_new_n764.
* NET   426  abc_12118_new_n763.
* NET   427  abc_12118_new_n762.
* NET   428  abc_12118_new_n761.
* NET   429  abc_12118_new_n760.
* NET   430  abc_12118_new_n759.
* NET   431  abc_12118_new_n758.
* NET   432  abc_12118_new_n757.
* NET   433  abc_12118_new_n756.
* NET   434  abc_12118_new_n755.
* NET   435  abc_12118_new_n754.
* NET   436  abc_12118_new_n753.
* NET   437  abc_12118_new_n752.
* NET   438  abc_12118_new_n751.
* NET   439  abc_12118_new_n750.
* NET   440  abc_12118_new_n749.
* NET   441  abc_12118_new_n748.
* NET   442  abc_12118_new_n747.
* NET   443  abc_12118_new_n746.
* NET   444  abc_12118_new_n745.
* NET   445  abc_12118_new_n744.
* NET   446  abc_12118_new_n743.
* NET   447  abc_12118_new_n741.
* NET   448  abc_12118_new_n740.
* NET   449  abc_12118_new_n739.
* NET   450  abc_12118_new_n738.
* NET   451  abc_12118_new_n737.
* NET   452  abc_12118_new_n736.
* NET   453  abc_12118_new_n735.
* NET   454  abc_12118_new_n734.
* NET   455  abc_12118_new_n733.
* NET   456  abc_12118_new_n732.
* NET   457  abc_12118_new_n731.
* NET   458  abc_12118_new_n730.
* NET   459  abc_12118_new_n729.
* NET   460  abc_12118_new_n728.
* NET   461  abc_12118_new_n727.
* NET   462  abc_12118_new_n726.
* NET   463  abc_12118_new_n725.
* NET   464  abc_12118_new_n724.
* NET   465  abc_12118_new_n723.
* NET   466  abc_12118_new_n722.
* NET   467  abc_12118_new_n721.
* NET   468  abc_12118_new_n720.
* NET   469  abc_12118_new_n719.
* NET   470  abc_12118_new_n718.
* NET   471  abc_12118_new_n717.
* NET   472  abc_12118_new_n716.
* NET   473  abc_12118_new_n715.
* NET   474  abc_12118_new_n714.
* NET   475  abc_12118_new_n713.
* NET   476  abc_12118_new_n712.
* NET   477  abc_12118_new_n711.
* NET   478  abc_12118_new_n710.
* NET   479  abc_12118_new_n709.
* NET   480  abc_12118_new_n708.
* NET   481  abc_12118_new_n707.
* NET   482  abc_12118_new_n706.
* NET   483  abc_12118_new_n705.
* NET   484  abc_12118_new_n704.
* NET   485  abc_12118_new_n703.
* NET   486  abc_12118_new_n702.
* NET   487  abc_12118_new_n701.
* NET   488  abc_12118_new_n700.
* NET   489  abc_12118_new_n699.
* NET   490  abc_12118_new_n698.
* NET   491  abc_12118_new_n697.
* NET   492  abc_12118_new_n696.
* NET   493  abc_12118_new_n695.
* NET   494  abc_12118_new_n694.
* NET   495  abc_12118_new_n693.
* NET   496  abc_12118_new_n692.
* NET   497  abc_12118_new_n691.
* NET   498  abc_12118_new_n690.
* NET   499  abc_12118_new_n689.
* NET   500  abc_12118_new_n688.
* NET   501  abc_12118_new_n687.
* NET   502  abc_12118_new_n686.
* NET   503  abc_12118_new_n685.
* NET   504  abc_12118_new_n684.
* NET   505  abc_12118_new_n683.
* NET   506  abc_12118_new_n682.
* NET   507  abc_12118_new_n681.
* NET   508  abc_12118_new_n680.
* NET   509  abc_12118_new_n679.
* NET   510  abc_12118_new_n678.
* NET   511  abc_12118_new_n677.
* NET   512  abc_12118_new_n676.
* NET   513  abc_12118_new_n675.
* NET   514  abc_12118_new_n674.
* NET   515  abc_12118_new_n673.
* NET   516  abc_12118_new_n672.
* NET   517  abc_12118_new_n671.
* NET   518  abc_12118_new_n670.
* NET   519  abc_12118_new_n669.
* NET   520  abc_12118_new_n668.
* NET   521  abc_12118_new_n667.
* NET   522  abc_12118_new_n666.
* NET   523  abc_12118_new_n665.
* NET   524  abc_12118_new_n664.
* NET   525  abc_12118_new_n663.
* NET   526  abc_12118_new_n662.
* NET   527  abc_12118_new_n661.
* NET   528  abc_12118_new_n660.
* NET   529  abc_12118_new_n659.
* NET   530  abc_12118_new_n658.
* NET   531  abc_12118_new_n657.
* NET   532  abc_12118_new_n656.
* NET   533  abc_12118_new_n655.
* NET   534  abc_12118_new_n654.
* NET   535  abc_12118_new_n653.
* NET   536  abc_12118_new_n652.
* NET   537  abc_12118_new_n651.
* NET   538  abc_12118_new_n650.
* NET   539  abc_12118_new_n649.
* NET   540  abc_12118_new_n648.
* NET   541  abc_12118_new_n647.
* NET   542  abc_12118_new_n646.
* NET   543  abc_12118_new_n645.
* NET   544  abc_12118_new_n644.
* NET   545  abc_12118_new_n643.
* NET   546  abc_12118_new_n642.
* NET   547  abc_12118_new_n641.
* NET   548  abc_12118_new_n640.
* NET   549  abc_12118_new_n639.
* NET   550  abc_12118_new_n638.
* NET   551  abc_12118_new_n637.
* NET   552  abc_12118_new_n636.
* NET   553  abc_12118_new_n635.
* NET   554  abc_12118_new_n634.
* NET   555  abc_12118_new_n633.
* NET   556  abc_12118_new_n632.
* NET   557  abc_12118_new_n631.
* NET   558  abc_12118_new_n630.
* NET   559  abc_12118_new_n629.
* NET   560  abc_12118_new_n628.
* NET   561  abc_12118_new_n627.
* NET   562  abc_12118_new_n626.
* NET   563  abc_12118_new_n625.
* NET   564  abc_12118_new_n624.
* NET   565  abc_12118_new_n623.
* NET   566  abc_12118_new_n622.
* NET   567  abc_12118_new_n621.
* NET   568  abc_12118_new_n620.
* NET   569  abc_12118_new_n619.
* NET   570  abc_12118_new_n618.
* NET   571  abc_12118_new_n617.
* NET   572  abc_12118_new_n616.
* NET   573  abc_12118_new_n615.
* NET   574  abc_12118_new_n614.
* NET   575  abc_12118_new_n613.
* NET   576  abc_12118_new_n612.
* NET   577  abc_12118_new_n611.
* NET   578  abc_12118_new_n610.
* NET   579  abc_12118_new_n609.
* NET   580  abc_12118_new_n608.
* NET   581  abc_12118_new_n607.
* NET   582  abc_12118_new_n606.
* NET   583  abc_12118_new_n605.
* NET   584  abc_12118_new_n604.
* NET   585  abc_12118_new_n603.
* NET   586  abc_12118_new_n602.
* NET   587  abc_12118_new_n601.
* NET   588  abc_12118_new_n600.
* NET   589  abc_12118_new_n599.
* NET   590  abc_12118_new_n598.
* NET   591  abc_12118_new_n597.
* NET   592  abc_12118_new_n596.
* NET   593  abc_12118_new_n595.
* NET   594  abc_12118_new_n594.
* NET   595  abc_12118_new_n593.
* NET   596  abc_12118_new_n592.
* NET   597  abc_12118_new_n591.
* NET   598  abc_12118_new_n590.
* NET   599  abc_12118_new_n589.
* NET   600  abc_12118_new_n588.
* NET   601  abc_12118_new_n587.
* NET   602  abc_12118_new_n586.
* NET   603  abc_12118_new_n585.
* NET   604  abc_12118_new_n584.
* NET   605  abc_12118_new_n583.
* NET   606  abc_12118_new_n582.
* NET   607  abc_12118_new_n581.
* NET   608  abc_12118_new_n580.
* NET   609  abc_12118_new_n579.
* NET   610  abc_12118_new_n578.
* NET   611  abc_12118_new_n577.
* NET   612  abc_12118_new_n576.
* NET   613  abc_12118_new_n575.
* NET   614  abc_12118_new_n574.
* NET   615  abc_12118_new_n573.
* NET   616  abc_12118_new_n572.
* NET   617  abc_12118_new_n571.
* NET   618  abc_12118_new_n570.
* NET   619  abc_12118_new_n569.
* NET   620  abc_12118_new_n568.
* NET   621  abc_12118_new_n567.
* NET   622  abc_12118_new_n566.
* NET   623  abc_12118_new_n565.
* NET   624  abc_12118_new_n564.
* NET   625  abc_12118_new_n563.
* NET   626  abc_12118_new_n562.
* NET   627  abc_12118_new_n561.
* NET   628  abc_12118_new_n560.
* NET   629  abc_12118_new_n559.
* NET   630  abc_12118_new_n558.
* NET   631  abc_12118_new_n557.
* NET   632  abc_12118_new_n556.
* NET   633  abc_12118_new_n555.
* NET   634  abc_12118_new_n554.
* NET   635  abc_12118_new_n553.
* NET   636  abc_12118_new_n552.
* NET   637  abc_12118_new_n551.
* NET   638  abc_12118_new_n550.
* NET   639  abc_12118_new_n549.
* NET   640  abc_12118_new_n548.
* NET   641  abc_12118_new_n547.
* NET   642  abc_12118_new_n546.
* NET   643  abc_12118_new_n545.
* NET   644  abc_12118_new_n544.
* NET   645  abc_12118_new_n543.
* NET   646  abc_12118_new_n542.
* NET   647  abc_12118_new_n541.
* NET   648  abc_12118_new_n540.
* NET   649  abc_12118_new_n539.
* NET   650  abc_12118_new_n538.
* NET   651  abc_12118_new_n537.
* NET   652  abc_12118_new_n536.
* NET   653  abc_12118_new_n535.
* NET   654  abc_12118_new_n534.
* NET   655  abc_12118_new_n533.
* NET   656  abc_12118_new_n532.
* NET   657  abc_12118_new_n531.
* NET   658  abc_12118_new_n530.
* NET   659  abc_12118_new_n529.
* NET   660  abc_12118_new_n528.
* NET   661  abc_12118_new_n527.
* NET   662  abc_12118_new_n526.
* NET   663  abc_12118_new_n525.
* NET   664  abc_12118_new_n524.
* NET   665  abc_12118_new_n523.
* NET   666  abc_12118_new_n522.
* NET   667  abc_12118_new_n521.
* NET   668  abc_12118_new_n520.
* NET   669  abc_12118_new_n519.
* NET   670  abc_12118_new_n518.
* NET   671  abc_12118_new_n517.
* NET   672  abc_12118_new_n516.
* NET   673  abc_12118_new_n515.
* NET   674  abc_12118_new_n514.
* NET   675  abc_12118_new_n513.
* NET   676  abc_12118_new_n512.
* NET   677  abc_12118_new_n511.
* NET   678  abc_12118_new_n510.
* NET   679  abc_12118_new_n509.
* NET   680  abc_12118_new_n508.
* NET   681  abc_12118_new_n507.
* NET   682  abc_12118_new_n506.
* NET   683  abc_12118_new_n505.
* NET   684  abc_12118_new_n504.
* NET   685  abc_12118_new_n503.
* NET   686  abc_12118_new_n502.
* NET   687  abc_12118_new_n501.
* NET   688  abc_12118_new_n500.
* NET   689  abc_12118_new_n499.
* NET   690  abc_12118_new_n498.
* NET   691  abc_12118_new_n497.
* NET   692  abc_12118_new_n496.
* NET   693  abc_12118_new_n495.
* NET   694  abc_12118_new_n494.
* NET   695  abc_12118_new_n493.
* NET   696  abc_12118_new_n492.
* NET   697  abc_12118_new_n491.
* NET   698  abc_12118_new_n490.
* NET   699  abc_12118_new_n489.
* NET   700  abc_12118_new_n488.
* NET   701  abc_12118_new_n487.
* NET   702  abc_12118_new_n486.
* NET   703  abc_12118_new_n485.
* NET   704  abc_12118_new_n484.
* NET   705  abc_12118_new_n483.
* NET   706  abc_12118_new_n482.
* NET   707  abc_12118_new_n481.
* NET   708  abc_12118_new_n480.
* NET   709  abc_12118_new_n479.
* NET   710  abc_12118_new_n478.
* NET   711  abc_12118_new_n477.
* NET   712  abc_12118_new_n476.
* NET   713  abc_12118_new_n475.
* NET   714  abc_12118_new_n474.
* NET   715  abc_12118_new_n473.
* NET   716  abc_12118_new_n472.
* NET   717  abc_12118_new_n471.
* NET   718  abc_12118_new_n470.
* NET   719  abc_12118_new_n469.
* NET   720  abc_12118_new_n468.
* NET   721  abc_12118_new_n467.
* NET   722  abc_12118_new_n466.
* NET   723  abc_12118_new_n465.
* NET   724  abc_12118_new_n464.
* NET   725  abc_12118_new_n463.
* NET   726  abc_12118_new_n462.
* NET   727  abc_12118_new_n461.
* NET   728  abc_12118_new_n460.
* NET   729  abc_12118_new_n459.
* NET   730  abc_12118_new_n458.
* NET   731  abc_12118_new_n457.
* NET   732  abc_12118_new_n456.
* NET   733  abc_12118_new_n455.
* NET   734  abc_12118_new_n454.
* NET   735  abc_12118_new_n453.
* NET   736  abc_12118_new_n452.
* NET   737  abc_12118_new_n451.
* NET   738  abc_12118_new_n450.
* NET   739  abc_12118_new_n449.
* NET   740  abc_12118_new_n448.
* NET   741  abc_12118_new_n447.
* NET   742  abc_12118_new_n446.
* NET   743  abc_12118_new_n445.
* NET   744  abc_12118_new_n444.
* NET   745  abc_12118_new_n443.
* NET   746  abc_12118_new_n442.
* NET   747  abc_12118_new_n441.
* NET   748  abc_12118_new_n440.
* NET   749  abc_12118_new_n439.
* NET   750  abc_12118_new_n438.
* NET   751  abc_12118_new_n436.
* NET   752  abc_12118_new_n434.
* NET   753  abc_12118_new_n432.
* NET   754  abc_12118_new_n430.
* NET   755  abc_12118_new_n428.
* NET   756  abc_12118_new_n426.
* NET   757  abc_12118_new_n424.
* NET   758  abc_12118_new_n422.
* NET   759  abc_12118_new_n421.
* NET   760  abc_12118_new_n420.
* NET   761  abc_12118_new_n419.
* NET   762  abc_12118_new_n418.
* NET   763  abc_12118_new_n417.
* NET   764  abc_12118_new_n416.
* NET   765  abc_12118_new_n415.
* NET   766  abc_12118_new_n414.
* NET   767  abc_12118_new_n413.
* NET   768  abc_12118_new_n412.
* NET   769  abc_12118_new_n411.
* NET   770  abc_12118_new_n410.
* NET   771  abc_12118_new_n409.
* NET   772  abc_12118_new_n408.
* NET   773  abc_12118_new_n407.
* NET   774  abc_12118_new_n406.
* NET   775  abc_12118_new_n405.
* NET   776  abc_12118_new_n404.
* NET   777  abc_12118_new_n403.
* NET   778  abc_12118_new_n402.
* NET   779  abc_12118_new_n401.
* NET   780  abc_12118_new_n400.
* NET   781  abc_12118_new_n399.
* NET   782  abc_12118_new_n398.
* NET   783  abc_12118_new_n397.
* NET   784  abc_12118_new_n396.
* NET   785  abc_12118_new_n395.
* NET   786  abc_12118_new_n394.
* NET   787  abc_12118_new_n393.
* NET   788  abc_12118_new_n392.
* NET   789  abc_12118_new_n391.
* NET   790  abc_12118_new_n390.
* NET   791  abc_12118_new_n389.
* NET   792  abc_12118_new_n388.
* NET   793  abc_12118_new_n387.
* NET   794  abc_12118_new_n386.
* NET   795  abc_12118_new_n385.
* NET   796  abc_12118_new_n384.
* NET   797  abc_12118_new_n383.
* NET   798  abc_12118_new_n382.
* NET   799  abc_12118_new_n381.
* NET   800  abc_12118_new_n380.
* NET   801  abc_12118_new_n379.
* NET   802  abc_12118_new_n378.
* NET   803  abc_12118_new_n377.
* NET   804  abc_12118_new_n376.
* NET   805  abc_12118_new_n375.
* NET   806  abc_12118_new_n374.
* NET   807  abc_12118_new_n373.
* NET   808  abc_12118_new_n372.
* NET   809  abc_12118_new_n371.
* NET   810  abc_12118_new_n370.
* NET   811  abc_12118_new_n369.
* NET   812  abc_12118_new_n368.
* NET   813  abc_12118_new_n367.
* NET   814  abc_12118_new_n366.
* NET   815  abc_12118_new_n365.
* NET   816  abc_12118_new_n364.
* NET   817  abc_12118_new_n363.
* NET   818  abc_12118_new_n362.
* NET   819  abc_12118_new_n361.
* NET   820  abc_12118_new_n360.
* NET   821  abc_12118_new_n359.
* NET   822  abc_12118_new_n358.
* NET   823  abc_12118_new_n357.
* NET   824  abc_12118_new_n356.
* NET   825  abc_12118_new_n355.
* NET   826  abc_12118_new_n354.
* NET   827  abc_12118_new_n353.
* NET   828  abc_12118_new_n352.
* NET   829  abc_12118_new_n351.
* NET   830  abc_12118_new_n350.
* NET   831  abc_12118_new_n349.
* NET   832  abc_12118_new_n348.
* NET   833  abc_12118_new_n347.
* NET   834  abc_12118_new_n346.
* NET   835  abc_12118_new_n345.
* NET   836  abc_12118_new_n344.
* NET   837  abc_12118_new_n343.
* NET   838  abc_12118_new_n342.
* NET   839  abc_12118_new_n341.
* NET   840  abc_12118_new_n340.
* NET   841  abc_12118_new_n339.
* NET   842  abc_12118_new_n338.
* NET   843  abc_12118_new_n337.
* NET   844  abc_12118_new_n336.
* NET   845  abc_12118_new_n335.
* NET   846  abc_12118_new_n1856.
* NET   847  abc_12118_new_n1855.
* NET   848  abc_12118_new_n1854.
* NET   849  abc_12118_new_n1853.
* NET   850  abc_12118_new_n1852.
* NET   851  abc_12118_new_n1851.
* NET   852  abc_12118_new_n1850.
* NET   853  abc_12118_new_n1849.
* NET   854  abc_12118_new_n1847.
* NET   855  abc_12118_new_n1846.
* NET   856  abc_12118_new_n1845.
* NET   857  abc_12118_new_n1844.
* NET   858  abc_12118_new_n1843.
* NET   859  abc_12118_new_n1842.
* NET   860  abc_12118_new_n1841.
* NET   861  abc_12118_new_n1840.
* NET   862  abc_12118_new_n1839.
* NET   863  abc_12118_new_n1838.
* NET   864  abc_12118_new_n1836.
* NET   865  abc_12118_new_n1835.
* NET   866  abc_12118_new_n1834.
* NET   867  abc_12118_new_n1833.
* NET   868  abc_12118_new_n1832.
* NET   869  abc_12118_new_n1831.
* NET   870  abc_12118_new_n1830.
* NET   871  abc_12118_new_n1829.
* NET   872  abc_12118_new_n1828.
* NET   873  abc_12118_new_n1826.
* NET   874  abc_12118_new_n1825.
* NET   875  abc_12118_new_n1824.
* NET   876  abc_12118_new_n1823.
* NET   877  abc_12118_new_n1822.
* NET   878  abc_12118_new_n1821.
* NET   879  abc_12118_new_n1820.
* NET   880  abc_12118_new_n1819.
* NET   881  abc_12118_new_n1818.
* NET   882  abc_12118_new_n1817.
* NET   883  abc_12118_new_n1816.
* NET   884  abc_12118_new_n1814.
* NET   885  abc_12118_new_n1813.
* NET   886  abc_12118_new_n1812.
* NET   887  abc_12118_new_n1811.
* NET   888  abc_12118_new_n1810.
* NET   889  abc_12118_new_n1809.
* NET   890  abc_12118_new_n1808.
* NET   891  abc_12118_new_n1807.
* NET   892  abc_12118_new_n1806.
* NET   893  abc_12118_new_n1805.
* NET   894  abc_12118_new_n1803.
* NET   895  abc_12118_new_n1802.
* NET   896  abc_12118_new_n1801.
* NET   897  abc_12118_new_n1800.
* NET   898  abc_12118_new_n1799.
* NET   899  abc_12118_new_n1798.
* NET   900  abc_12118_new_n1797.
* NET   901  abc_12118_new_n1796.
* NET   902  abc_12118_new_n1795.
* NET   903  abc_12118_new_n1793.
* NET   904  abc_12118_new_n1792.
* NET   905  abc_12118_new_n1791.
* NET   906  abc_12118_new_n1790.
* NET   907  abc_12118_new_n1789.
* NET   908  abc_12118_new_n1788.
* NET   909  abc_12118_new_n1787.
* NET   910  abc_12118_new_n1786.
* NET   911  abc_12118_new_n1785.
* NET   912  abc_12118_new_n1783.
* NET   913  abc_12118_new_n1782.
* NET   914  abc_12118_new_n1781.
* NET   915  abc_12118_new_n1780.
* NET   916  abc_12118_new_n1779.
* NET   917  abc_12118_new_n1778.
* NET   918  abc_12118_new_n1777.
* NET   919  abc_12118_new_n1776.
* NET   920  abc_12118_new_n1775.
* NET   921  abc_12118_new_n1773.
* NET   922  abc_12118_new_n1772.
* NET   923  abc_12118_new_n1771.
* NET   924  abc_12118_new_n1770.
* NET   925  abc_12118_new_n1769.
* NET   926  abc_12118_new_n1768.
* NET   927  abc_12118_new_n1767.
* NET   928  abc_12118_new_n1766.
* NET   929  abc_12118_new_n1765.
* NET   930  abc_12118_new_n1763.
* NET   931  abc_12118_new_n1762.
* NET   932  abc_12118_new_n1761.
* NET   933  abc_12118_new_n1760.
* NET   934  abc_12118_new_n1759.
* NET   935  abc_12118_new_n1758.