*.include /users/cao/aoudrhiri/coriolis-2.x/src/alliance-check-toolkit/pdkmaster/C4M.Sky130/libs.ref/StdCellLib/spice/StdCellLib.spi
* Spice driver version -182784229
* Date ( dd/mm/yyyy hh:mm:ss ):  2/07/2024 at 13:54:53

* INTERF adrs[0] adrs[1] adrs[2] adrs[3] adrs[4] adrs[5] adrs[6] adrs[7] 
* INTERF adrs[8] adrs[9] adrs[10] adrs[11] adrs[12] adrs[13] adrs[14] 
* INTERF adrs[15] data[0] data[1] data[2] data[3] data[4] data[5] data[6] 
* INTERF data[7] datao[0] datao[1] datao[2] datao[3] datao[4] datao[5] 
* INTERF datao[6] datao[7] debug[0] debug[1] debug[2] debug[3] debug[4] 
* INTERF debug[5] debug[6] debug[7] debug[8] debug[9] debug[10] debug[11] 
* INTERF debug[12] debug[13] debug[14] debug[15] irq m_clock nmi p_reset rd 
* INTERF rdy start sync vdd vss wt 


.subckt m65_cts_r_ext 6571 6376 6522 6165 5936 5501 5039 5268 3946 3709 3547 3546 3382 3376 3379 3560 6727 6265 5902 5372 5262 5243 4308 5272 6491 6024 5585 5168 5325 4465 4021 3614 6906 6893 6885 6874 6850 6820 6740 6591 6807 6905 6665 5670 5524 5026 4918 4914 6243 m_clock 6261 6976 3655 6440 6728 5907 vdd vss 4720 
* NET 29 = subckt_1623_sff1_x4.sff_m
* NET 30 = subckt_1623_sff1_x4.ckr
* NET 34 = subckt_1624_sff1_x4.sff_m
* NET 35 = subckt_1624_sff1_x4.ckr
* NET 39 = subckt_1632_sff1_x4.sff_m
* NET 40 = subckt_1632_sff1_x4.ckr
* NET 43 = subckt_1634_sff1_x4.sff_m
* NET 45 = subckt_1634_sff1_x4.ckr
* NET 48 = subckt_1619_sff1_x4.sff_m
* NET 50 = subckt_1619_sff1_x4.ckr
* NET 54 = subckt_1627_sff1_x4.sff_m
* NET 55 = subckt_1627_sff1_x4.ckr
* NET 69 = abc_8311_new_n932
* NET 81 = abc_8311_new_n950
* NET 86 = abc_8311_new_n945
* NET 95 = subckt_1623_sff1_x4.sff_s
* NET 99 = subckt_1623_sff1_x4.nckr
* NET 101 = subckt_1624_sff1_x4.sff_s
* NET 105 = subckt_1624_sff1_x4.nckr
* NET 107 = subckt_1632_sff1_x4.sff_s
* NET 111 = subckt_1632_sff1_x4.nckr
* NET 115 = subckt_1634_sff1_x4.sff_s
* NET 120 = subckt_1634_sff1_x4.nckr
* NET 121 = subckt_1619_sff1_x4.sff_s
* NET 124 = subckt_1619_sff1_x4.nckr
* NET 126 = subckt_1627_sff1_x4.sff_s
* NET 131 = subckt_1627_sff1_x4.nckr
* NET 133 = abc_8311_new_n605
* NET 138 = abc_8311_new_n604
* NET 191 = abc_8311_new_n1094
* NET 196 = abc_8311_new_n1081
* NET 200 = abc_8311_new_n1093
* NET 209 = abc_8311_new_n948
* NET 210 = abc_8311_new_n942
* NET 212 = abc_8311_new_n946
* NET 214 = abc_8311_new_n944
* NET 216 = abc_8311_new_n940
* NET 222 = abc_8311_auto_rtlil_cc_2693_muxgate_8270
* NET 225 = abc_8311_auto_rtlil_cc_2693_muxgate_8272
* NET 228 = subckt_1631_sff1_x4.sff_s
* NET 231 = subckt_1631_sff1_x4.sff_m
* NET 233 = subckt_1631_sff1_x4.ckr
* NET 235 = subckt_1631_sff1_x4.nckr
* NET 237 = abc_8311_auto_rtlil_cc_2693_muxgate_8286
* NET 239 = abc_8311_auto_rtlil_cc_2693_muxgate_8288
* NET 243 = abc_8311_auto_rtlil_cc_2693_muxgate_8292
* NET 246 = subckt_1626_sff1_x4.sff_s
* NET 249 = subckt_1626_sff1_x4.sff_m
* NET 251 = subckt_1626_sff1_x4.ckr
* NET 254 = subckt_1626_sff1_x4.nckr
* NET 255 = abc_8311_auto_rtlil_cc_2693_muxgate_8262
* NET 258 = abc_8311_auto_rtlil_cc_2693_muxgate_8278
* NET 261 = abc_8311_new_n1726
* NET 263 = abc_8311_new_n618
* NET 264 = abc_8311_new_n620
* NET 265 = abc_8311_new_n622
* NET 301 = abc_8311_new_n1090
* NET 302 = abc_8311_new_n1088
* NET 305 = abc_8311_new_n1089
* NET 307 = abc_8311_new_n1073
* NET 310 = abc_8311_new_n1015
* NET 312 = abc_8311_new_n1087
* NET 314 = abc_8311_new_n1074
* NET 319 = abc_8311_new_n941
* NET 320 = abc_8311_new_n947
* NET 322 = abc_8311_new_n1092
* NET 323 = abc_8311_new_n1016
* NET 328 = abc_8311_new_n1011
* NET 332 = abc_8311_new_n1009
* NET 335 = abc_8311_new_n1008
* NET 342 = subckt_1622_sff1_x4.sff_s
* NET 345 = subckt_1622_sff1_x4.sff_m
* NET 348 = subckt_1622_sff1_x4.ckr
* NET 349 = subckt_1622_sff1_x4.nckr
* NET 350 = abc_8311_auto_rtlil_cc_2693_muxgate_8268
* NET 355 = subckt_1630_sff1_x4.sff_s
* NET 358 = subckt_1630_sff1_x4.sff_m
* NET 362 = subckt_1630_sff1_x4.ckr
* NET 363 = subckt_1630_sff1_x4.nckr
* NET 364 = abc_8311_auto_rtlil_cc_2693_muxgate_8284
* NET 369 = subckt_1633_sff1_x4.sff_s
* NET 372 = subckt_1633_sff1_x4.sff_m
* NET 376 = subckt_1633_sff1_x4.nckr
* NET 377 = subckt_1633_sff1_x4.ckr
* NET 379 = subckt_1625_sff1_x4.sff_s
* NET 382 = subckt_1625_sff1_x4.sff_m
* NET 384 = subckt_1625_sff1_x4.ckr
* NET 386 = subckt_1625_sff1_x4.nckr
* NET 387 = abc_8311_auto_rtlil_cc_2693_muxgate_8276
* NET 392 = ry[7]
* NET 395 = abc_8311_new_n623
* NET 399 = abc_8311_new_n1725
* NET 402 = abc_8311_new_n631
* NET 405 = abc_8311_new_n603
* NET 461 = abc_8311_new_n1097
* NET 466 = abc_8311_new_n1125
* NET 470 = abc_8311_new_n1077
* NET 473 = abc_8311_new_n1078
* NET 476 = abc_8311_new_n1069
* NET 477 = abc_8311_new_n1014
* NET 478 = abc_8311_new_n1012
* NET 480 = abc_8311_new_n1017
* NET 482 = abc_8311_new_n1013
* NET 486 = abc_8311_new_n949
* NET 488 = abc_8311_new_n1007
* NET 489 = abc_8311_new_n1010
* NET 491 = abc_8311_new_n943
* NET 493 = abc_8311_new_n939
* NET 494 = abc_8311_new_n1006
* NET 500 = ry[4]
* NET 502 = ry[3]
* NET 504 = ry[5]
* NET 509 = subckt_1607_sff1_x4.sff_s
* NET 513 = subckt_1607_sff1_x4.sff_m
* NET 514 = subckt_1607_sff1_x4.ckr
* NET 516 = subckt_1607_sff1_x4.nckr
* NET 517 = abc_8311_auto_rtlil_cc_2693_muxgate_8274
* NET 522 = rx[7]
* NET 525 = rx[0]
* NET 527 = ry[0]
* NET 530 = subckt_1603_sff1_x4.sff_s
* NET 534 = subckt_1603_sff1_x4.sff_m
* NET 536 = subckt_1603_sff1_x4.ckr
* NET 537 = subckt_1603_sff1_x4.nckr
* NET 569 = abc_8311_new_n1086
* NET 571 = abc_8311_new_n1095
* NET 573 = abc_8311_new_n1126
* NET 576 = abc_8311_new_n1096
* NET 579 = abc_8311_new_n1098
* NET 581 = abc_8311_new_n1084
* NET 586 = abc_8311_new_n1083
* NET 588 = abc_8311_new_n1079
* NET 589 = abc_8311_new_n1076
* NET 591 = abc_8311_new_n1082
* NET 592 = abc_8311_new_n1080
* NET 596 = abc_8311_new_n1042
* NET 598 = abc_8311_new_n1068
* NET 603 = abc_8311_new_n1070
* NET 607 = abc_8311_new_n1071
* NET 611 = abc_8311_new_n1072
* NET 615 = abc_8311_new_n938
* NET 619 = abc_8311_new_n1067
* NET 624 = abc_8311_new_n897
* NET 625 = abc_8311_new_n895
* NET 629 = abc_8311_new_n957
* NET 633 = rx[4]
* NET 636 = rx[5]
* NET 640 = abc_8311_new_n1066
* NET 641 = abc_8311_new_n959
* NET 643 = subckt_1608_sff1_x4.sff_s
* NET 646 = subckt_1608_sff1_x4.sff_m
* NET 650 = subckt_1608_sff1_x4.ckr
* NET 651 = subckt_1608_sff1_x4.nckr
* NET 652 = abc_8311_auto_rtlil_cc_2693_muxgate_8208
* NET 657 = abc_8311_auto_rtlil_cc_2693_muxgate_8206
* NET 661 = abc_8311_auto_rtlil_cc_2693_muxgate_8290
* NET 663 = ry[6]
* NET 669 = subckt_1628_sff1_x4.sff_s
* NET 673 = subckt_1628_sff1_x4.sff_m
* NET 675 = subckt_1628_sff1_x4.ckr
* NET 676 = subckt_1628_sff1_x4.nckr
* NET 677 = abc_8311_auto_rtlil_cc_2693_muxgate_8198
* NET 682 = abc_8311_new_n607
* NET 686 = abc_8311_new_n498
* NET 690 = abc_8311_new_n1181
* NET 766 = abc_8311_new_n1018
* NET 769 = abc_8311_new_n833
* NET 770 = abc_8311_new_n812
* NET 772 = abc_8311_new_n931
* NET 774 = abc_8311_new_n1041
* NET 776 = abc_8311_new_n1128
* NET 779 = abc_8311_new_n1005
* NET 784 = abc_8311_new_n1004
* NET 787 = abc_8311_new_n937
* NET 791 = abc_8311_new_n982
* NET 793 = abc_8311_new_n983
* NET 794 = abc_8311_new_n935
* NET 801 = abc_8311_new_n914
* NET 803 = subckt_1629_sff1_x4.sff_s
* NET 806 = subckt_1629_sff1_x4.sff_m
* NET 809 = subckt_1629_sff1_x4.ckr
* NET 810 = abc_8311_auto_rtlil_cc_2693_muxgate_8282
* NET 811 = subckt_1629_sff1_x4.nckr
* NET 817 = subckt_1621_sff1_x4.sff_s
* NET 821 = subckt_1621_sff1_x4.sff_m
* NET 823 = subckt_1621_sff1_x4.ckr
* NET 824 = subckt_1621_sff1_x4.nckr
* NET 825 = rx[6]
* NET 828 = abc_8311_auto_rtlil_cc_2693_muxgate_8280
* NET 829 = ry[1]
* NET 830 = abc_8311_new_n1727
* NET 836 = subckt_1610_sff1_x4.sff_s
* NET 840 = subckt_1610_sff1_x4.sff_m
* NET 842 = subckt_1610_sff1_x4.ckr
* NET 843 = subckt_1610_sff1_x4.nckr
* NET 844 = abc_8311_new_n611
* NET 845 = abc_8311_new_n472
* NET 849 = abc_8311_new_n477
* NET 851 = abc_8311_new_n500
* NET 857 = abc_8311_new_n471
* NET 859 = abc_8311_new_n610
* NET 860 = abc_8311_new_n499
* NET 863 = abc_8311_new_n245
* NET 870 = abc_8311_new_n1127
* NET 911 = abc_8311_new_n742
* NET 914 = abc_8311_new_n989
* NET 917 = abc_8311_new_n1117
* NET 918 = abc_8311_new_n894
* NET 919 = abc_8311_new_n896
* NET 923 = subckt_1620_sff1_x4.sff_m
* NET 924 = subckt_1620_sff1_x4.ckr
* NET 925 = subckt_1620_sff1_x4.nckr
* NET 933 = abc_8311_new_n813
* NET 936 = abc_8311_new_n831
* NET 938 = abc_8311_new_n810
* NET 941 = abc_8311_new_n811
* NET 943 = abc_8311_new_n805
* NET 946 = abc_8311_new_n600
* NET 947 = abc_8311_new_n806
* NET 953 = abc_8311_new_n1091
* NET 961 = abc_8311_new_n1019
* NET 965 = abc_8311_new_n953
* NET 968 = abc_8311_new_n986
* NET 973 = abc_8311_new_n984
* NET 975 = abc_8311_new_n1104
* NET 980 = abc_8311_new_n1105
* NET 981 = abc_8311_new_n1002
* NET 982 = abc_8311_new_n976
* NET 986 = abc_8311_new_n626
* NET 987 = abc_8311_new_n617
* NET 988 = ry[2]
* NET 990 = abc_8311_auto_rtlil_cc_2693_muxgate_8266
* NET 998 = subckt_1620_sff1_x4.sff_s
* NET 1001 = abc_8311_auto_rtlil_cc_2693_muxgate_8264
* NET 1002 = rx[1]
* NET 1004 = abc_8311_new_n1716
* NET 1007 = abc_8311_auto_rtlil_cc_2693_muxgate_8212
* NET 1029 = abc_8311_new_n473
* NET 1031 = abc_8311_new_n488
* NET 1033 = abc_8311_new_n382
* NET 1035 = abc_8311_new_n1715
* NET 1038 = abc_8311_new_n608
* NET 1039 = abc_8311_new_n632
* NET 1138 = subckt_1575_sff1_x4.sff_s
* NET 1142 = subckt_1575_sff1_x4.sff_m
* NET 1143 = subckt_1575_sff1_x4.ckr
* NET 1145 = subckt_1575_sff1_x4.nckr
* NET 1146 = abc_8311_new_n809
* NET 1151 = abc_8311_new_n885
* NET 1156 = abc_8311_new_n801
* NET 1158 = abc_8311_new_n770
* NET 1163 = abc_8311_new_n1153
* NET 1165 = abc_8311_new_n1100
* NET 1169 = abc_8311_new_n737
* NET 1171 = abc_8311_new_n740
* NET 1172 = abc_8311_new_n985
* NET 1175 = abc_8311_new_n936
* NET 1176 = abc_8311_new_n915
* NET 1177 = abc_8311_new_n954
* NET 1178 = abc_8311_new_n981
* NET 1182 = rx[3]
* NET 1186 = abc_8311_new_n977
* NET 1188 = abc_8311_new_n956
* NET 1189 = abc_8311_new_n958
* NET 1190 = abc_8311_new_n606
* NET 1191 = rx[2]
* NET 1194 = abc_8311_new_n612
* NET 1196 = abc_8311_new_n1145
* NET 1198 = subckt_1609_sff1_x4.sff_s
* NET 1200 = subckt_1609_sff1_x4.sff_m
* NET 1203 = abc_8311_auto_rtlil_cc_2693_muxgate_8210
* NET 1204 = subckt_1609_sff1_x4.ckr
* NET 1206 = subckt_1609_sff1_x4.nckr
* NET 1208 = abc_8311_new_n1173
* NET 1209 = abc_8311_new_n739
* NET 1210 = abc_8311_new_n581
* NET 1212 = abc_8311_new_n1193
* NET 1214 = abc_8311_new_n580
* NET 1215 = abc_8311_new_n578
* NET 1218 = abc_8311_new_n389
* NET 1221 = abc_8311_new_n570
* NET 1223 = abc_8311_new_n385
* NET 1224 = abc_8311_new_n567
* NET 1229 = abc_8311_new_n1186
* NET 1231 = abc_8311_new_n384
* NET 1232 = abc_8311_new_n569
* NET 1233 = abc_8311_new_n496
* NET 1234 = abc_8311_new_n534
* NET 1235 = abc_8311_new_n1185
* NET 1236 = abc_8311_new_n568
* NET 1239 = abc_8311_new_n301
* NET 1280 = abc_8311_new_n820
* NET 1287 = abc_8311_new_n818
* NET 1289 = abc_8311_new_n804
* NET 1292 = abc_8311_new_n815
* NET 1298 = abc_8311_new_n769
* NET 1300 = abc_8311_new_n1101
* NET 1304 = abc_8311_new_n1129
* NET 1306 = abc_8311_new_n1154
* NET 1309 = abc_8311_new_n1156
* NET 1312 = abc_8311_new_n1085
* NET 1313 = abc_8311_new_n1099
* NET 1315 = spare_buffer_18.q
* NET 1317 = abc_8311_new_n1050
* NET 1320 = abc_8311_new_n768
* NET 1322 = abc_8311_new_n583
* NET 1323 = abc_8311_new_n1003
* NET 1326 = abc_8311_new_n1112
* NET 1328 = abc_8311_new_n1106
* NET 1329 = abc_8311_new_n1107
* NET 1330 = abc_8311_new_n1113
* NET 1332 = abc_8311_new_n980
* NET 1333 = abc_8311_new_n978
* NET 1338 = abc_8311_new_n1109
* NET 1339 = abc_8311_new_n1111
* NET 1340 = abc_8311_new_n975
* NET 1343 = abc_8311_new_n1110
* NET 1345 = abc_8311_new_n1029
* NET 1346 = abc_8311_new_n1028
* NET 1353 = abc_8311_new_n680
* NET 1356 = abc_8311_new_n682
* NET 1360 = abc_8311_new_n503
* NET 1365 = abc_8311_new_n571
* NET 1367 = abc_8311_new_n736
* NET 1370 = spare_buffer_14.q
* NET 1372 = abc_8311_new_n1745
* NET 1379 = abc_8311_new_n566
* NET 1380 = abc_8311_new_n1184
* NET 1381 = abc_8311_new_n1694
* NET 1385 = abc_8311_new_n497
* NET 1389 = abc_8311_new_n609
* NET 1390 = abc_8311_new_n493
* NET 1394 = abc_8311_new_n369
* NET 1395 = abc_8311_new_n494
* NET 1478 = abc_8311_new_n819
* NET 1479 = abc_8311_new_n830
* NET 1480 = abc_8311_new_n816
* NET 1482 = abc_8311_new_n796
* NET 1483 = abc_8311_new_n802
* NET 1484 = abc_8311_new_n817
* NET 1485 = abc_8311_new_n807
* NET 1488 = abc_8311_new_n795
* NET 1490 = abc_8311_new_n803
* NET 1491 = abc_8311_new_n814
* NET 1492 = abc_8311_new_n799
* NET 1498 = abc_8311_new_n794
* NET 1501 = abc_8311_new_n748
* NET 1505 = abc_8311_new_n1026
* NET 1508 = abc_8311_new_n1027
* NET 1510 = spare_buffer_17.q
* NET 1513 = abc_8311_new_n1049
* NET 1517 = abc_8311_new_n1114
* NET 1518 = abc_8311_new_n1103
* NET 1521 = abc_8311_new_n917
* NET 1524 = abc_8311_new_n955
* NET 1527 = abc_8311_new_n916
* NET 1530 = abc_8311_new_n979
* NET 1533 = abc_8311_new_n1108
* NET 1534 = abc_8311_new_n913
* NET 1541 = abc_8311_new_n668
* NET 1542 = abc_8311_new_n666
* NET 1544 = subckt_1606_sff1_x4.sff_s
* NET 1548 = subckt_1606_sff1_x4.sff_m
* NET 1549 = abc_8311_auto_rtlil_cc_2693_muxgate_8204
* NET 1551 = subckt_1606_sff1_x4.ckr
* NET 1552 = subckt_1606_sff1_x4.nckr
* NET 1553 = abc_8311_new_n476
* NET 1558 = abc_8311_new_n1194
* NET 1559 = abc_8311_new_n629
* NET 1560 = abc_8311_new_n449
* NET 1562 = abc_8311_new_n483
* NET 1563 = abc_8311_new_n478
* NET 1564 = abc_8311_new_n735
* NET 1565 = abc_8311_new_n1760
* NET 1569 = spare_buffer_13.q
* NET 1572 = abc_8311_new_n1182
* NET 1575 = abc_8311_new_n1766
* NET 1576 = abc_8311_new_n257
* NET 1578 = abc_8311_new_n639
* NET 1579 = abc_8311_new_n317
* NET 1580 = abc_8311_new_n318
* NET 1582 = abc_8311_new_n383
* NET 1583 = abc_8311_new_n621
* NET 1587 = abc_8311_new_n596
* NET 1588 = abc_8311_new_n327
* NET 1620 = abc_8311_new_n829
* NET 1627 = abc_8311_new_n808
* NET 1632 = abc_8311_new_n822
* NET 1635 = abc_8311_new_n800
* NET 1640 = abc_8311_new_n601
* NET 1641 = abc_8311_new_n792
* NET 1645 = abc_8311_new_n793
* NET 1647 = abc_8311_new_n749
* NET 1649 = abc_8311_new_n951
* NET 1652 = abc_8311_new_n1040
* NET 1655 = abc_8311_new_n1075
* NET 1661 = abc_8311_new_n1192
* NET 1662 = abc_8311_new_n1241
* NET 1667 = abc_8311_new_n747
* NET 1669 = abc_8311_new_n918
* NET 1670 = abc_8311_new_n892
* NET 1676 = abc_8311_new_n767
* NET 1679 = abc_8311_new_n751
* NET 1682 = abc_8311_new_n766
* NET 1687 = abc_8311_new_n764
* NET 1688 = abc_8311_new_n753
* NET 1694 = abc_8311_new_n1131
* NET 1695 = abc_8311_new_n1242
* NET 1699 = abc_8311_new_n1136
* NET 1700 = abc_8311_new_n1138
* NET 1703 = abc_8311_new_n688
* NET 1704 = abc_8311_new_n1137
* NET 1706 = abc_8311_new_n1166
* NET 1708 = abc_8311_new_n1168
* NET 1716 = abc_8311_new_n1167
* NET 1722 = abc_8311_new_n1191
* NET 1724 = abc_8311_new_n1195
* NET 1727 = abc_8311_new_n564
* NET 1728 = abc_8311_new_n1196
* NET 1730 = abc_8311_new_n577
* NET 1732 = abc_8311_new_n559
* NET 1735 = abc_8311_new_n1761
* NET 1737 = abc_8311_new_n597
* NET 1740 = abc_8311_new_n598
* NET 1744 = abc_8311_new_n484
* NET 1745 = abc_8311_new_n560
* NET 1746 = abc_8311_new_n390
* NET 1749 = abc_8311_new_n310
* NET 1757 = abc_8311_new_n625
* NET 1758 = abc_8311_new_n591
* NET 1760 = abc_8311_new_n387
* NET 1778 = abc_8311_new_n533
* NET 1779 = abc_8311_new_n300
* NET 1875 = abc_8311_new_n828
* NET 1876 = abc_8311_new_n738
* NET 1877 = abc_8311_new_n832
* NET 1880 = abc_8311_new_n825
* NET 1882 = abc_8311_new_n797
* NET 1883 = abc_8311_new_n824
* NET 1884 = abc_8311_new_n798
* NET 1885 = abc_8311_new_n722
* NET 1886 = abc_8311_new_n821
* NET 1888 = abc_8311_new_n719
* NET 1891 = abc_8311_new_n730
* NET 1893 = abc_8311_new_n777
* NET 1900 = abc_8311_new_n510
* NET 1904 = abc_8311_new_n563
* NET 1905 = abc_8311_new_n574
* NET 1911 = abc_8311_new_n746
* NET 1913 = abc_8311_new_n890
* NET 1914 = abc_8311_new_n889
* NET 1918 = abc_8311_new_n765
* NET 1919 = abc_8311_new_n750
* NET 1925 = abc_8311_new_n1142
* NET 1929 = abc_8311_new_n1064
* NET 1931 = abc_8311_new_n780
* NET 1933 = abc_8311_new_n779
* NET 1944 = abc_8311_new_n1243
* NET 1945 = abc_8311_new_n1162
* NET 1946 = abc_8311_new_n562
* NET 1947 = abc_8311_new_n1762
* NET 1950 = abc_8311_new_n1765
* NET 1953 = abc_8311_new_n328
* NET 1956 = subckt_1641_sff1r_x4.sff_s
* NET 1959 = abc_8311_auto_rtlil_cc_2693_muxgate_8310
* NET 1960 = subckt_1641_sff1r_x4.sff_m
* NET 1963 = subckt_1641_sff1r_x4.ckr
* NET 1964 = subckt_1641_sff1r_x4.nckr
* NET 1965 = abc_8311_new_n531
* NET 1967 = abc_8311_new_n594
* NET 1968 = abc_8311_new_n687
* NET 1971 = abc_8311_new_n686
* NET 1972 = abc_8311_new_n685
* NET 1973 = abc_8311_new_n684
* NET 1975 = abc_8311_new_n595
* NET 1979 = abc_8311_new_n324
* NET 1982 = abc_8311_new_n592
* NET 1985 = abc_8311_new_n320
* NET 1986 = abc_8311_new_n319
* NET 1988 = abc_8311_new_n391
* NET 1989 = abc_8311_new_n388
* NET 1990 = abc_8311_new_n386
* NET 1991 = abc_8311_new_n326
* NET 1992 = abc_8311_new_n380
* NET 2044 = abc_8311_new_n891
* NET 2045 = abc_8311_new_n919
* NET 2046 = abc_8311_new_n893
* NET 2048 = abc_8311_new_n923
* NET 2050 = abc_8311_new_n1163
* NET 2051 = abc_8311_new_n1164
* NET 2052 = abc_8311_new_n1169
* NET 2057 = abc_8311_new_n1763
* NET 2058 = abc_8311_new_n546
* NET 2065 = subckt_1635_sff1_x4.sff_m
* NET 2067 = subckt_1635_sff1_x4.ckr
* NET 2068 = subckt_1635_sff1_x4.nckr
* NET 2070 = abc_8311_new_n630
* NET 2074 = abc_8311_new_n1188
* NET 2080 = abc_8311_new_n858
* NET 2086 = abc_8311_new_n558
* NET 2088 = abc_8311_new_n727
* NET 2092 = abc_8311_new_n731
* NET 2095 = abc_8311_new_n720
* NET 2097 = abc_8311_new_n778
* NET 2102 = abc_8311_new_n721
* NET 2106 = abc_8311_new_n557
* NET 2107 = abc_8311_new_n662
* NET 2109 = abc_8311_new_n697
* NET 2111 = abc_8311_new_n588
* NET 2116 = abc_8311_new_n696
* NET 2117 = abc_8311_new_n695
* NET 2122 = abc_8311_new_n694
* NET 2124 = abc_8311_new_n448
* NET 2125 = abc_8311_new_n323
* NET 2128 = abc_8311_new_n1133
* NET 2129 = abc_8311_new_n1140
* NET 2135 = abc_8311_new_n1048
* NET 2136 = abc_8311_new_n1065
* NET 2138 = abc_8311_new_n1157
* NET 2139 = abc_8311_new_n1170
* NET 2142 = abc_8311_new_n1051
* NET 2144 = abc_8311_new_n1132
* NET 2146 = abc_8311_new_n1165
* NET 2154 = abc_8311_new_n1161
* NET 2155 = abc_8311_new_n576
* NET 2156 = abc_8311_new_n1197
* NET 2157 = abc_8311_new_n613
* NET 2161 = abc_8311_new_n556
* NET 2165 = abc_8311_new_n627
* NET 2167 = subckt_1635_sff1_x4.sff_s
* NET 2170 = abc_8311_new_n481
* NET 2173 = abc_8311_new_n482
* NET 2174 = abc_8311_new_n644
* NET 2180 = abc_8311_new_n329
* NET 2182 = abc_8311_new_n304
* NET 2183 = abc_8311_new_n309
* NET 2184 = abc_8311_new_n645
* NET 2188 = abc_8311_new_n619
* NET 2193 = abc_8311_new_n322
* NET 2194 = abc_8311_new_n377
* NET 2195 = abc_8311_new_n370
* NET 2196 = abc_8311_new_n393
* NET 2198 = abc_8311_new_n325
* NET 2202 = abc_8311_new_n395
* NET 2207 = abc_8311_new_n330
* NET 2208 = abc_8311_new_n313
* NET 2286 = abc_8311_new_n859
* NET 2291 = abc_8311_new_n732
* NET 2292 = abc_8311_new_n728
* NET 2298 = abc_8311_new_n725
* NET 2299 = abc_8311_new_n717
* NET 2301 = abc_8311_new_n711
* NET 2303 = abc_8311_new_n723
* NET 2304 = abc_8311_new_n726
* NET 2306 = abc_8311_new_n718
* NET 2307 = abc_8311_new_n724
* NET 2308 = abc_8311_new_n729
* NET 2314 = abc_8311_new_n602
* NET 2319 = abc_8311_new_n575
* NET 2320 = abc_8311_new_n659
* NET 2323 = abc_8311_new_n692
* NET 2325 = abc_8311_new_n1240
* NET 2326 = abc_8311_new_n743
* NET 2329 = abc_8311_new_n665
* NET 2331 = abc_8311_new_n663
* NET 2333 = abc_8311_new_n744
* NET 2336 = abc_8311_new_n870
* NET 2340 = abc_8311_new_n1134
* NET 2342 = abc_8311_new_n869
* NET 2344 = abc_8311_new_n1139
* NET 2345 = abc_8311_new_n1135
* NET 2346 = abc_8311_new_n1141
* NET 2347 = abc_8311_new_n752
* NET 2349 = abc_8311_new_n689
* NET 2350 = abc_8311_new_n683
* NET 2352 = abc_8311_new_n367
* NET 2353 = abc_8311_new_n690
* NET 2355 = abc_8311_new_n664
* NET 2356 = abc_8311_new_n1025
* NET 2360 = abc_8311_new_n1764
* NET 2361 = abc_8311_new_n1159
* NET 2364 = subckt_1605_sff1_x4.sff_s
* NET 2367 = subckt_1605_sff1_x4.sff_m
* NET 2369 = subckt_1605_sff1_x4.ckr
* NET 2371 = abc_8311_new_n508
* NET 2372 = subckt_1605_sff1_x4.nckr
* NET 2375 = abc_8311_new_n545
* NET 2379 = abc_8311_new_n572
* NET 2381 = abc_8311_new_n565
* NET 2382 = abc_8311_new_n573
* NET 2384 = abc_8311_new_n505
* NET 2386 = abc_8311_new_n701
* NET 2387 = abc_8311_new_n459
* NET 2389 = abc_8311_new_n479
* NET 2392 = abc_8311_new_n480
* NET 2394 = abc_8311_new_n475
* NET 2396 = abc_8311_new_n1183
* NET 2399 = abc_8311_new_n638
* NET 2400 = abc_8311_new_n495
* NET 2404 = abc_8311_new_n451
* NET 2406 = abc_8311_new_n298
* NET 2407 = abc_8311_new_n312
* NET 2408 = abc_8311_new_n399
* NET 2409 = abc_8311_new_n321
* NET 2411 = abc_8311_new_n381
* NET 2412 = abc_8311_new_n302
* NET 2415 = abc_8311_new_n373
* NET 2418 = abc_8311_new_n343
* NET 2461 = subckt_1571_sff1_x4.sff_s
* NET 2465 = subckt_1571_sff1_x4.sff_m
* NET 2468 = subckt_1571_sff1_x4.ckr
* NET 2469 = subckt_1571_sff1_x4.nckr
* NET 2479 = abc_8311_new_n657
* NET 2483 = abc_8311_new_n660
* NET 2485 = abc_8311_new_n658
* NET 2487 = abc_8311_new_n656
* NET 2489 = abc_8311_new_n716
* NET 2492 = abc_8311_new_n715
* NET 2495 = abc_8311_new_n771
* NET 2498 = abc_8311_new_n599
* NET 2499 = abc_8311_new_n661
* NET 2501 = abc_8311_new_n506
* NET 2506 = abc_8311_new_n561
* NET 2507 = abc_8311_new_n888
* NET 2508 = abc_8311_new_n920
* NET 2511 = abc_8311_new_n714
* NET 2512 = abc_8311_new_n678
* NET 2513 = abc_8311_new_n840
* NET 2514 = abc_8311_new_n693
* NET 2517 = abc_8311_new_n691
* NET 2518 = abc_8311_new_n842
* NET 2519 = abc_8311_new_n844
* NET 2520 = abc_8311_new_n655
* NET 2521 = abc_8311_new_n681
* NET 2522 = abc_8311_new_n843
* NET 2525 = abc_8311_new_n865
* NET 2526 = abc_8311_new_n866
* NET 2530 = abc_8311_new_n1045
* NET 2532 = abc_8311_new_n1047
* NET 2534 = abc_8311_new_n679
* NET 2535 = abc_8311_new_n791
* NET 2536 = abc_8311_new_n845
* NET 2537 = abc_8311_new_n912
* NET 2542 = abc_8311_new_n781
* NET 2544 = abc_8311_new_n1063
* NET 2545 = abc_8311_new_n1053
* NET 2546 = abc_8311_new_n1052
* NET 2550 = abc_8311_new_n667
* NET 2551 = abc_8311_new_n1160
* NET 2553 = abc_8311_new_n1039
* NET 2560 = abc_8311_auto_rtlil_cc_2693_muxgate_8202
* NET 2562 = abc_8311_new_n616
* NET 2567 = subckt_1604_sff1_x4.sff_s
* NET 2570 = subckt_1604_sff1_x4.sff_m
* NET 2573 = subckt_1604_sff1_x4.ckr
* NET 2574 = subckt_1604_sff1_x4.nckr
* NET 2578 = abc_8311_new_n641
* NET 2582 = abc_8311_auto_rtlil_cc_2693_muxgate_8294
* NET 2583 = tc
* NET 2587 = abc_8311_new_n457
* NET 2591 = subckt_1538_sff1r_x4.sff_s
* NET 2594 = subckt_1538_sff1r_x4.sff_m
* NET 2598 = subckt_1538_sff1r_x4.nckr
* NET 2599 = subckt_1538_sff1r_x4.ckr
* NET 2600 = abc_8311_new_n1198
* NET 2601 = abc_8311_auto_rtlil_cc_2693_muxgate_8068
* NET 2603 = abc_8311_new_n1189
* NET 2604 = abc_8311_new_n1187
* NET 2607 = abc_8311_new_n633
* NET 2610 = abc_8311_new_n635
* NET 2615 = abc_8311_new_n368
* NET 2622 = abc_8311_new_n394
* NET 2623 = abc_8311_new_n392
* NET 2625 = abc_8311_new_n374
* NET 2628 = abc_8311_new_n375
* NET 2629 = abc_8311_new_n308
* NET 2632 = abc_8311_new_n306
* NET 2705 = subckt_1574_sff1_x4.sff_s
* NET 2708 = subckt_1574_sff1_x4.sff_m
* NET 2710 = subckt_1574_sff1_x4.ckr
* NET 2712 = abc_8311_new_n883
* NET 2713 = subckt_1574_sff1_x4.nckr
* NET 2716 = abc_8311_new_n861
* NET 2717 = abc_8311_new_n860
* NET 2720 = abc_8311_new_n836
* NET 2723 = abc_8311_new_n734
* NET 2727 = abc_8311_new_n741
* NET 2728 = abc_8311_new_n834
* NET 2730 = abc_8311_new_n590
* NET 2733 = abc_8311_new_n587
* NET 2734 = abc_8311_new_n589
* NET 2736 = abc_8311_new_n776
* NET 2737 = abc_8311_new_n775
* NET 2739 = abc_8311_new_n712
* NET 2740 = abc_8311_new_n586
* NET 2741 = abc_8311_new_n875
* NET 2742 = abc_8311_new_n1239
* NET 2744 = abc_8311_new_n1238
* NET 2746 = abc_8311_new_n288
* NET 2747 = abc_8311_new_n1001
* NET 2749 = abc_8311_new_n868
* NET 2750 = abc_8311_new_n871
* NET 2752 = abc_8311_new_n867
* NET 2755 = abc_8311_new_n1046
* NET 2758 = abc_8311_new_n1044
* NET 2763 = abc_8311_new_n1144
* NET 2766 = abc_8311_new_n1038
* NET 2770 = abc_8311_new_n974
* NET 2773 = abc_8311_new_n642
* NET 2775 = abc_8311_new_n1236
* NET 2778 = abc_8311_new_n1037
* NET 2779 = abc_8311_new_n1237
* NET 2782 = abc_8311_new_n504
* NET 2787 = abc_8311_new_n474
* NET 2788 = abc_8311_new_n491
* NET 2790 = abc_8311_new_n507
* NET 2792 = abc_8311_auto_rtlil_cc_2693_muxgate_8200
* NET 2793 = abc_8311_new_n850
* NET 2797 = abc_8311_new_n1695
* NET 2799 = abc_8311_new_n247
* NET 2801 = abc_8311_new_n1768
* NET 2803 = abc_8311_new_n1767
* NET 2807 = abc_8311_new_n409
* NET 2809 = subckt_1639_sff1r_x4.sff_s
* NET 2812 = subckt_1639_sff1r_x4.sff_m
* NET 2815 = subckt_1639_sff1r_x4.ckr
* NET 2816 = subckt_1639_sff1r_x4.nckr
* NET 2817 = abc_8311_new_n1204
* NET 2820 = abc_8311_new_n1203
* NET 2823 = abc_8311_new_n1190
* NET 2824 = abc_8311_new_n1753
* NET 2826 = abc_8311_auto_rtlil_cc_2693_muxgate_8306
* NET 2827 = abc_8311_new_n1312
* NET 2830 = abc_8311_new_n452
* NET 2833 = abc_8311_new_n376
* NET 2834 = abc_8311_new_n371
* NET 2836 = abc_8311_new_n397
* NET 2837 = abc_8311_new_n378
* NET 2842 = subckt_1579_sff1_x4.sff_s
* NET 2846 = subckt_1579_sff1_x4.sff_m
* NET 2849 = subckt_1579_sff1_x4.nckr
* NET 2850 = subckt_1579_sff1_x4.ckr
* NET 2851 = abc_8311_auto_rtlil_cc_2693_muxgate_8150
* NET 2852 = op[0]
* NET 2895 = abc_8311_new_n827
* NET 2896 = abc_8311_new_n826
* NET 2897 = abc_8311_new_n823
* NET 2901 = subckt_1576_sff1_x4.sff_s
* NET 2903 = subckt_1576_sff1_x4.sff_m
* NET 2907 = subckt_1576_sff1_x4.ckr
* NET 2908 = subckt_1576_sff1_x4.nckr
* NET 2909 = abc_8311_new_n884
* NET 2913 = abc_8311_new_n886
* NET 2915 = abc_8311_new_n837
* NET 2919 = abc_8311_new_n862
* NET 2921 = abc_8311_new_n733
* NET 2924 = abc_8311_new_n835
* NET 2928 = subckt_1578_sff1_x4.sff_s
* NET 2931 = subckt_1578_sff1_x4.sff_m
* NET 2933 = subckt_1578_sff1_x4.ckr
* NET 2935 = subckt_1578_sff1_x4.nckr
* NET 2936 = abc_8311_new_n772
* NET 2938 = abc_8311_new_n864
* NET 2940 = abc_8311_new_n872
* NET 2944 = abc_8311_new_n584
* NET 2946 = abc_8311_new_n1023
* NET 2950 = abc_8311_new_n1020
* NET 2951 = abc_8311_new_n1024
* NET 2952 = abc_8311_new_n1021
* NET 2953 = abc_8311_new_n1022
* NET 2958 = subckt_1617_sff1r_x4.sff_s
* NET 2961 = abc_8311_auto_rtlil_cc_2693_muxgate_8254
* NET 2962 = subckt_1617_sff1r_x4.sff_m
* NET 2965 = subckt_1617_sff1r_x4.ckr
* NET 2966 = subckt_1617_sff1r_x4.nckr
* NET 2970 = subckt_1618_sff1r_x4.sff_s
* NET 2973 = subckt_1618_sff1r_x4.sff_m
* NET 2976 = subckt_1618_sff1r_x4.ckr
* NET 2977 = abc_8311_auto_rtlil_cc_2693_muxgate_8260
* NET 2978 = subckt_1618_sff1r_x4.nckr
* NET 2979 = abc_8311_auto_ff_cc_704_flip_bits_8255
* NET 2981 = abc_8311_new_n1172
* NET 2986 = abc_8311_new_n677
* NET 2987 = abc_8311_new_n669
* NET 2990 = abc_8311_new_n1030
* NET 2993 = abc_8311_new_n1036
* NET 2996 = abc_8311_new_n1031
* NET 2997 = abc_8311_new_n1247
* NET 2998 = abc_8311_new_n1248
* NET 2999 = abc_8311_new_n1155
* NET 3003 = abc_8311_new_n637
* NET 3004 = abc_8311_new_n654
* NET 3006 = abc_8311_new_n544
* NET 3010 = abc_8311_new_n542
* NET 3015 = abc_8311_new_n541
* NET 3021 = abc_8311_new_n463
* NET 3023 = abc_8311_new_n461
* NET 3029 = subckt_1638_sff1r_x4.sff_s
* NET 3032 = subckt_1638_sff1r_x4.sff_m
* NET 3035 = subckt_1638_sff1r_x4.nckr
* NET 3036 = subckt_1638_sff1r_x4.ckr
* NET 3037 = abc_8311_new_n256
* NET 3039 = abc_8311_auto_rtlil_cc_2693_muxgate_8304
* NET 3040 = abc_8311_new_n258
* NET 3042 = abc_8311_new_n1746
* NET 3044 = abc_8311_new_n1750
* NET 3046 = abc_8311_new_n1201
* NET 3049 = abc_8311_new_n437
* NET 3051 = abc_8311_new_n634
* NET 3060 = abc_8311_new_n303
* NET 3062 = abc_8311_new_n314
* NET 3069 = subckt_1583_sff1_x4.sff_s
* NET 3073 = subckt_1583_sff1_x4.sff_m
* NET 3075 = subckt_1583_sff1_x4.ckr
* NET 3076 = subckt_1583_sff1_x4.nckr
* NET 3144 = subckt_1572_sff1_x4.sff_s
* NET 3147 = subckt_1572_sff1_x4.sff_m
* NET 3150 = subckt_1572_sff1_x4.ckr
* NET 3151 = subckt_1572_sff1_x4.nckr
* NET 3152 = abc_8311_auto_rtlil_cc_2693_muxgate_8144
* NET 3153 = subckt_1577_sff1_x4.sff_s
* NET 3158 = subckt_1577_sff1_x4.sff_m
* NET 3160 = m_clock_root_tr_0
* NET 3161 = subckt_1577_sff1_x4.ckr
* NET 3162 = subckt_1577_sff1_x4.nckr
* NET 3163 = abc_8311_auto_rtlil_cc_2693_muxgate_8146
* NET 3165 = abc_8311_new_n1607
* NET 3167 = abc_8311_new_n774
* NET 3172 = abc_8311_new_n773
* NET 3174 = abc_8311_new_n839
* NET 3178 = abc_8311_new_n988
* NET 3182 = abc_8311_new_n847
* NET 3183 = abc_8311_new_n841
* NET 3184 = abc_8311_new_n846
* NET 3186 = abc_8311_new_n470
* NET 3187 = abc_8311_new_n933
* NET 3188 = abc_8311_new_n934
* NET 3190 = abc_8311_auto_ff_cc_704_flip_bits_8249
* NET 3191 = abc_8311_new_n1000
* NET 3193 = abc_8311_new_n910
* NET 3195 = abc_8311_new_n972
* NET 3197 = abc_8311_new_n898
* NET 3199 = abc_8311_new_n615
* NET 3201 = abc_8311_new_n960
* NET 3202 = abc_8311_new_n909
* NET 3204 = abc_8311_new_n900
* NET 3208 = abc_8311_new_n790
* NET 3210 = abc_8311_new_n911
* NET 3212 = abc_8311_new_n899
* NET 3217 = abc_8311_new_n554
* NET 3218 = abc_8311_new_n513
* NET 3221 = abc_8311_new_n1704
* NET 3225 = abc_8311_new_n1705
* NET 3226 = abc_8311_new_n468
* NET 3227 = abc_8311_new_n540
* NET 3229 = abc_8311_new_n535
* NET 3231 = abc_8311_new_n539
* NET 3233 = abc_8311_new_n538
* NET 3234 = abc_8311_new_n530
* NET 3236 = abc_8311_new_n1202
* NET 3238 = abc_8311_new_n1752
* NET 3242 = abc_8311_new_n1200
* NET 3245 = abc_8311_new_n1749
* NET 3246 = abc_8311_new_n1748
* NET 3248 = abc_8311_new_n1747
* NET 3252 = subckt_1580_sff1_x4.sff_s
* NET 3257 = subckt_1580_sff1_x4.sff_m
* NET 3259 = m_clock_root_tl_0
* NET 3260 = subckt_1580_sff1_x4.nckr
* NET 3261 = subckt_1580_sff1_x4.ckr
* NET 3262 = abc_8311_auto_rtlil_cc_2693_muxgate_8158
* NET 3263 = op[4]
* NET 3312 = subckt_1573_sff1_x4.sff_m
* NET 3313 = subckt_1573_sff1_x4.ckr