* Coriolis Structural SPICE Driver
* Generated on Sep 30, 2024, 15:05
* Cell/Subckt "mac_cts_r".
* 
* INTERF vss
* INTERF vdd
* INTERF reset
* INTERF multiplier[3]
* INTERF multiplier[2]
* INTERF multiplier[1]
* INTERF multiplier[0]
* INTERF multiplicand[3]
* INTERF multiplicand[2]
* INTERF multiplicand[1]
* INTERF multiplicand[0]
* INTERF clk
* INTERF accumulator_out[7]
* INTERF accumulator_out[6]
* INTERF accumulator_out[5]
* INTERF accumulator_out[4]
* INTERF accumulator_out[3]
* INTERF accumulator_out[2]
* INTERF accumulator_out[1]
* INTERF accumulator_out[0]

* Terminal models (aka standard cells) used througout all the hierarchy.
.include decap_w0.spi
.include tie.spi
.include nand2_x0.spi
.include and2_x1.spi
.include nor2_x0.spi
.include and4_x1.spi
.include inv_x0.spi
.include xor2_x0.spi
.include nexor2_x0.spi
.include or21nand_x0.spi
.include or2_x1.spi
.include and21nor_x0.spi
.include diode_w1.spi
.include mux2_x1.spi
.include dff_x1.spi
.include buf_x4.spi
.include nand4_x0.spi

* Non-terminal models (part of the user's design hierarchy).

.subckt mac_cts_r 0 1 3 12 13 14 15 16 17 18 19 23 25 26 27 28 29 30 31 32
* NET     0 = vss
* NET     1 = vdd
* NET     2 = reset_root_0
* NET     3 = reset
* NET     4 = partial_product[7]
* NET     5 = partial_product[6]
* NET     6 = partial_product[5]
* NET     7 = partial_product[4]
* NET     8 = partial_product[3]
* NET     9 = partial_product[2]
* NET    10 = partial_product[1]
* NET    11 = partial_product[0]
* NET    12 = multiplier[3]
* NET    13 = multiplier[2]
* NET    14 = multiplier[1]
* NET    15 = multiplier[0]
* NET    16 = multiplicand[3]
* NET    17 = multiplicand[2]
* NET    18 = multiplicand[1]
* NET    19 = multiplicand[0]
* NET    20 = clk_root_2
* NET    21 = clk_root_1
* NET    22 = clk_root_0
* NET    23 = clk
* NET    24 = blockagenet
* NET    25 = accumulator_out[7]
* NET    26 = accumulator_out[6]
* NET    27 = accumulator_out[5]
* NET    28 = accumulator_out[4]
* NET    29 = accumulator_out[3]
* NET    30 = accumulator_out[2]
* NET    31 = accumulator_out[1]
* NET    32 = accumulator_out[0]
* NET    33 = abc_567_new_n99
* NET    34 = abc_567_new_n98
* NET    35 = abc_567_new_n97
* NET    36 = abc_567_new_n96
* NET    37 = abc_567_new_n94
* NET    38 = abc_567_new_n93
* NET    39 = abc_567_new_n92
* NET    40 = abc_567_new_n91
* NET    41 = abc_567_new_n90
* NET    42 = abc_567_new_n89
* NET    43 = abc_567_new_n88
* NET    44 = abc_567_new_n87
* NET    45 = abc_567_new_n86
* NET    46 = abc_567_new_n85
* NET    47 = abc_567_new_n84
* NET    48 = abc_567_new_n83
* NET    49 = abc_567_new_n82
* NET    50 = abc_567_new_n81
* NET    51 = abc_567_new_n80
* NET    52 = abc_567_new_n79
* NET    53 = abc_567_new_n78
* NET    54 = abc_567_new_n77
* NET    55 = abc_567_new_n76
* NET    56 = abc_567_new_n75
* NET    57 = abc_567_new_n74
* NET    58 = abc_567_new_n73
* NET    59 = abc_567_new_n72
* NET    60 = abc_567_new_n71
* NET    61 = abc_567_new_n70
* NET    62 = abc_567_new_n69
* NET    63 = abc_567_new_n68
* NET    64 = abc_567_new_n66
* NET    65 = abc_567_new_n65
* NET    66 = abc_567_new_n64
* NET    67 = abc_567_new_n63
* NET    68 = abc_567_new_n62
* NET    69 = abc_567_new_n61
* NET    70 = abc_567_new_n60
* NET    71 = abc_567_new_n59
* NET    72 = abc_567_new_n58
* NET    73 = abc_567_new_n57
* NET    74 = abc_567_new_n56
* NET    75 = abc_567_new_n55
* NET    76 = abc_567_new_n54
* NET    77 = abc_567_new_n52
* NET    78 = abc_567_new_n51
* NET    79 = abc_567_new_n50
* NET    80 = abc_567_new_n49
* NET    81 = abc_567_new_n48
* NET    82 = abc_567_new_n46
* NET    83 = abc_567_new_n45
* NET    84 = abc_567_new_n44
* NET    85 = abc_567_new_n43
* NET    86 = abc_567_new_n42
* NET    87 = abc_567_new_n187
* NET    88 = abc_567_new_n186
* NET    89 = abc_567_new_n185
* NET    90 = abc_567_new_n183
* NET    91 = abc_567_new_n182
* NET    92 = abc_567_new_n181
* NET    93 = abc_567_new_n180
* NET    94 = abc_567_new_n179
* NET    95 = abc_567_new_n177
* NET    96 = abc_567_new_n176
* NET    97 = abc_567_new_n175
* NET    98 = abc_567_new_n174
* NET    99 = abc_567_new_n173
* NET   100 = abc_567_new_n171
* NET   101 = abc_567_new_n170
* NET   102 = abc_567_new_n169
* NET   103 = abc_567_new_n168
* NET   104 = abc_567_new_n167
* NET   105 = abc_567_new_n165
* NET   106 = abc_567_new_n164
* NET   107 = abc_567_new_n163
* NET   108 = abc_567_new_n162
* NET   109 = abc_567_new_n161
* NET   110 = abc_567_new_n159
* NET   111 = abc_567_new_n158
* NET   112 = abc_567_new_n157
* NET   113 = abc_567_new_n156
* NET   114 = abc_567_new_n155
* NET   115 = abc_567_new_n153
* NET   116 = abc_567_new_n152
* NET   117 = abc_567_new_n151
* NET   118 = abc_567_new_n150
* NET   119 = abc_567_new_n148
* NET   120 = abc_567_new_n147
* NET   121 = abc_567_new_n145
* NET   122 = abc_567_new_n143
* NET   123 = abc_567_new_n142
* NET   124 = abc_567_new_n141
* NET   125 = abc_567_new_n140
* NET   126 = abc_567_new_n139
* NET   127 = abc_567_new_n138
* NET   128 = abc_567_new_n137
* NET   129 = abc_567_new_n136
* NET   130 = abc_567_new_n135
* NET   131 = abc_567_new_n134
* NET   132 = abc_567_new_n132
* NET   133 = abc_567_new_n131
* NET   134 = abc_567_new_n130
* NET   135 = abc_567_new_n129
* NET   136 = abc_567_new_n128
* NET   137 = abc_567_new_n127
* NET   138 = abc_567_new_n126
* NET   139 = abc_567_new_n125
* NET   140 = abc_567_new_n124
* NET   141 = abc_567_new_n123
* NET   142 = abc_567_new_n122
* NET   143 = abc_567_new_n121
* NET   144 = abc_567_new_n119
* NET   145 = abc_567_new_n118
* NET   146 = abc_567_new_n117
* NET   147 = abc_567_new_n116
* NET   148 = abc_567_new_n115
* NET   149 = abc_567_new_n114
* NET   150 = abc_567_new_n113
* NET   151 = abc_567_new_n112
* NET   152 = abc_567_new_n111
* NET   153 = abc_567_new_n110
* NET   154 = abc_567_new_n109
* NET   155 = abc_567_new_n108
* NET   156 = abc_567_new_n107
* NET   157 = abc_567_new_n106
* NET   158 = abc_567_new_n105
* NET   159 = abc_567_new_n104
* NET   160 = abc_567_new_n103
* NET   161 = abc_567_new_n102
* NET   162 = abc_567_new_n101
* NET   163 = abc_567_new_n100
* NET   164 = abc_567_auto_rtlil_cc_2608_MuxGate_566
* NET   165 = abc_567_auto_rtlil_cc_2608_MuxGate_564
* NET   166 = abc_567_auto_rtlil_cc_2608_MuxGate_562
* NET   167 = abc_567_auto_rtlil_cc_2608_MuxGate_560
* NET   168 = abc_567_auto_rtlil_cc_2608_MuxGate_558
* NET   169 = abc_567_auto_rtlil_cc_2608_MuxGate_556
* NET   170 = abc_567_auto_rtlil_cc_2608_MuxGate_554
* NET   171 = abc_567_auto_rtlil_cc_2608_MuxGate_552
* NET   172 = abc_567_auto_rtlil_cc_2608_MuxGate_550
* NET   173 = abc_567_auto_rtlil_cc_2608_MuxGate_548
* NET   174 = abc_567_auto_rtlil_cc_2608_MuxGate_546
* NET   175 = abc_567_auto_rtlil_cc_2608_MuxGate_544
* NET   176 = abc_567_auto_rtlil_cc_2608_MuxGate_542
* NET   177 = abc_567_auto_rtlil_cc_2608_MuxGate_540
* NET   178 = abc_567_auto_rtlil_cc_2608_MuxGate_538
* NET   179 = abc_567_auto_rtlil_cc_2608_MuxGate_536

xfeed_1859 1 0 decap_w0
xfeed_1858 1 0 decap_w0
xfeed_1857 1 0 decap_w0
xfeed_1856 1 0 decap_w0
xfeed_1855 1 0 decap_w0
xfeed_1854 1 0 decap_w0
xfeed_1853 1 0 decap_w0
xfeed_1852 1 0 tie
xfeed_1851 1 0 decap_w0
xfeed_1850 1 0 decap_w0
xfeed_409 1 0 decap_w0
xfeed_408 1 0 decap_w0
xfeed_407 1 0 decap_w0
xfeed_406 1 0 decap_w0
xfeed_405 1 0 decap_w0
xfeed_404 1 0 decap_w0
xfeed_403 1 0 decap_w0
xfeed_402 1 0 tie
xfeed_401 1 0 decap_w0
xfeed_400 1 0 decap_w0
xfeed_369 1 0 decap_w0
xfeed_368 1 0 decap_w0
xfeed_367 1 0 decap_w0
xfeed_366 1 0 decap_w0
xfeed_365 1 0 decap_w0
xfeed_364 1 0 decap_w0
xfeed_363 1 0 decap_w0
xfeed_362 1 0 decap_w0
xfeed_361 1 0 decap_w0
xfeed_360 1 0 decap_w0
xfeed_1909 1 0 decap_w0
xfeed_1908 1 0 decap_w0
xfeed_1907 1 0 decap_w0
xfeed_1906 1 0 decap_w0
xfeed_1905 1 0 decap_w0
xfeed_1904 1 0 decap_w0
xfeed_1903 1 0 decap_w0
xfeed_1902 1 0 decap_w0
xfeed_1901 1 0 decap_w0
xfeed_1900 1 0 decap_w0
xfeed_1869 1 0 decap_w0
xfeed_1868 1 0 decap_w0
xfeed_1867 1 0 decap_w0
xfeed_1866 1 0 decap_w0
xfeed_1865 1 0 decap_w0
xfeed_1864 1 0 decap_w0
xfeed_1863 1 0 decap_w0
xfeed_1862 1 0 tie
xfeed_1861 1 0 decap_w0
xfeed_1860 1 0 decap_w0
xfeed_419 1 0 decap_w0
xfeed_418 1 0 decap_w0
xfeed_417 1 0 decap_w0
xfeed_416 1 0 decap_w0
xfeed_415 1 0 decap_w0
xfeed_414 1 0 decap_w0
xfeed_413 1 0 decap_w0
xfeed_412 1 0 decap_w0
xfeed_411 1 0 decap_w0
xfeed_410 1 0 decap_w0
xfeed_379 1 0 decap_w0
xfeed_378 1 0 decap_w0
xfeed_377 1 0 decap_w0
xfeed_376 1 0 decap_w0
xfeed_375 1 0 decap_w0
xfeed_374 1 0 decap_w0
xfeed_373 1 0 decap_w0
xfeed_372 1 0 decap_w0
xfeed_371 1 0 decap_w0
xfeed_370 1 0 decap_w0
xsubckt_34_nand2_x0 1 0 55 57 59 nand2_x0
xfeed_1919 1 0 decap_w0
xfeed_1918 1 0 decap_w0
xfeed_1917 1 0 decap_w0
xfeed_1916 1 0 decap_w0
xfeed_1915 1 0 decap_w0
xfeed_1914 1 0 decap_w0
xfeed_1913 1 0 decap_w0
xfeed_1912 1 0 decap_w0
xfeed_1911 1 0 decap_w0
xfeed_1910 1 0 decap_w0
xfeed_1879 1 0 decap_w0
xfeed_1878 1 0 decap_w0
xfeed_1877 1 0 decap_w0
xfeed_1876 1 0 decap_w0
xfeed_1875 1 0 decap_w0
xfeed_1874 1 0 decap_w0
xfeed_1873 1 0 decap_w0
xfeed_1872 1 0 decap_w0
xfeed_1871 1 0 decap_w0
xfeed_1870 1 0 decap_w0
xfeed_429 1 0 decap_w0
xfeed_428 1 0 decap_w0
xfeed_427 1 0 decap_w0
xfeed_426 1 0 decap_w0
xfeed_425 1 0 decap_w0
xfeed_424 1 0 decap_w0
xfeed_423 1 0 decap_w0
xfeed_422 1 0 decap_w0
xfeed_421 1 0 tie
xfeed_420 1 0 decap_w0
xfeed_389 1 0 decap_w0
xfeed_388 1 0 decap_w0
xfeed_387 1 0 decap_w0
xfeed_386 1 0 decap_w0
xfeed_385 1 0 decap_w0
xfeed_384 1 0 decap_w0
xfeed_383 1 0 decap_w0
xfeed_382 1 0 decap_w0
xfeed_381 1 0 decap_w0
xfeed_380 1 0 tie
xsubckt_84_and2_x1 1 0 138 139 157 and2_x1
xsubckt_45_and2_x1 1 0 44 47 62 and2_x1
xfeed_1929 1 0 decap_w0
xfeed_1928 1 0 decap_w0
xfeed_1927 1 0 decap_w0
xfeed_1926 1 0 decap_w0
xfeed_1925 1 0 decap_w0
xfeed_1924 1 0 decap_w0
xfeed_1923 1 0 decap_w0
xfeed_1922 1 0 decap_w0
xfeed_1921 1 0 decap_w0
xfeed_1920 1 0 decap_w0
xfeed_1889 1 0 decap_w0
xfeed_1888 1 0 decap_w0
xfeed_1887 1 0 decap_w0
xfeed_1886 1 0 decap_w0
xfeed_1885 1 0 decap_w0
xfeed_1884 1 0 decap_w0
xfeed_1883 1 0 tie
xfeed_1882 1 0 decap_w0
xfeed_1881 1 0 decap_w0
xfeed_1880 1 0 decap_w0
xfeed_439 1 0 decap_w0
xfeed_438 1 0 decap_w0
xfeed_437 1 0 decap_w0
xfeed_436 1 0 decap_w0
xfeed_435 1 0 decap_w0
xfeed_434 1 0 decap_w0
xfeed_433 1 0 decap_w0
xfeed_432 1 0 decap_w0
xfeed_431 1 0 decap_w0
xfeed_430 1 0 decap_w0
xfeed_399 1 0 decap_w0
xfeed_398 1 0 decap_w0
xfeed_397 1 0 decap_w0
xfeed_396 1 0 decap_w0
xfeed_395 1 0 decap_w0
xfeed_394 1 0 tie
xfeed_393 1 0 decap_w0
xfeed_392 1 0 decap_w0
xfeed_390 1 0 decap_w0
xfeed_1939 1 0 decap_w0
xfeed_1938 1 0 decap_w0
xfeed_1937 1 0 decap_w0
xfeed_1936 1 0 decap_w0
xfeed_1935 1 0 decap_w0
xfeed_1934 1 0 decap_w0
xfeed_1933 1 0 decap_w0
xfeed_1932 1 0 decap_w0
xfeed_1931 1 0 decap_w0
xfeed_1930 1 0 decap_w0
xfeed_1899 1 0 decap_w0
xfeed_1898 1 0 decap_w0
xfeed_1897 1 0 decap_w0
xfeed_1896 1 0 decap_w0
xfeed_1895 1 0 decap_w0
xfeed_1894 1 0 decap_w0
xfeed_1893 1 0 decap_w0
xfeed_1892 1 0 decap_w0
xfeed_1891 1 0 decap_w0
xfeed_1890 1 0 decap_w0
xfeed_449 1 0 decap_w0
xfeed_448 1 0 decap_w0
xfeed_447 1 0 decap_w0
xfeed_446 1 0 decap_w0
xfeed_445 1 0 decap_w0
xfeed_444 1 0 decap_w0
xfeed_443 1 0 decap_w0
xfeed_442 1 0 decap_w0
xfeed_441 1 0 decap_w0
xfeed_440 1 0 decap_w0
xfeed_1949 1 0 decap_w0
xfeed_1948 1 0 decap_w0
xfeed_1947 1 0 decap_w0
xfeed_1946 1 0 decap_w0
xfeed_1945 1 0 decap_w0
xfeed_1944 1 0 decap_w0
xfeed_1943 1 0 decap_w0
xfeed_1942 1 0 decap_w0
xfeed_1941 1 0 decap_w0
xfeed_1940 1 0 decap_w0
xfeed_459 1 0 decap_w0
xfeed_458 1 0 decap_w0
xfeed_457 1 0 decap_w0
xfeed_456 1 0 decap_w0
xfeed_455 1 0 decap_w0
xfeed_454 1 0 decap_w0
xfeed_453 1 0 decap_w0
xfeed_452 1 0 decap_w0
xfeed_451 1 0 decap_w0
xfeed_450 1 0 decap_w0
xfeed_1959 1 0 decap_w0
xfeed_1958 1 0 decap_w0
xfeed_1957 1 0 decap_w0
xfeed_1956 1 0 decap_w0
xfeed_1955 1 0 decap_w0
xfeed_1954 1 0 decap_w0
xfeed_1953 1 0 tie
xfeed_1952 1 0 decap_w0
xfeed_1951 1 0 decap_w0
xfeed_1950 1 0 decap_w0
xfeed_469 1 0 decap_w0
xfeed_468 1 0 decap_w0
xfeed_467 1 0 decap_w0
xfeed_466 1 0 decap_w0
xfeed_465 1 0 decap_w0
xfeed_464 1 0 decap_w0
xfeed_463 1 0 decap_w0
xfeed_462 1 0 decap_w0
xfeed_461 1 0 decap_w0
xfeed_460 1 0 decap_w0
xsubckt_118_nor2_x0 1 0 169 110 2 nor2_x0
xfeed_500 1 0 decap_w0
xfeed_501 1 0 decap_w0
xfeed_502 1 0 decap_w0
xfeed_503 1 0 decap_w0
xfeed_504 1 0 decap_w0
xfeed_505 1 0 decap_w0
xfeed_506 1 0 tie
xfeed_507 1 0 decap_w0
xfeed_508 1 0 decap_w0
xfeed_509 1 0 decap_w0
xfeed_1969 1 0 decap_w0
xfeed_1968 1 0 decap_w0
xfeed_1967 1 0 decap_w0
xfeed_1966 1 0 decap_w0
xfeed_1965 1 0 decap_w0
xfeed_1964 1 0 decap_w0
xfeed_1963 1 0 tie
xfeed_1962 1 0 decap_w0
xfeed_1961 1 0 decap_w0
xfeed_1960 1 0 decap_w0
xsubckt_17_and4_x1 1 0 71 13 18 14 19 and4_x1
xfeed_470 1 0 decap_w0
xfeed_471 1 0 decap_w0
xfeed_472 1 0 decap_w0
xfeed_473 1 0 decap_w0
xfeed_474 1 0 decap_w0
xfeed_475 1 0 decap_w0
xfeed_476 1 0 decap_w0
xfeed_477 1 0 decap_w0
xfeed_478 1 0 decap_w0
xfeed_479 1 0 decap_w0
xfeed_510 1 0 decap_w0
xfeed_511 1 0 decap_w0
xfeed_512 1 0 decap_w0
xfeed_513 1 0 decap_w0
xfeed_514 1 0 decap_w0
xfeed_515 1 0 decap_w0
xfeed_516 1 0 decap_w0
xfeed_517 1 0 decap_w0
xfeed_518 1 0 decap_w0
xfeed_519 1 0 tie
xfeed_1979 1 0 decap_w0
xfeed_1978 1 0 decap_w0
xfeed_1977 1 0 tie
xfeed_1976 1 0 decap_w0
xfeed_1975 1 0 decap_w0
xfeed_1974 1 0 decap_w0
xfeed_1973 1 0 decap_w0
xfeed_1972 1 0 decap_w0
xfeed_1971 1 0 decap_w0
xfeed_1970 1 0 decap_w0
xfeed_480 1 0 tie
xfeed_481 1 0 decap_w0
xfeed_482 1 0 decap_w0
xfeed_483 1 0 decap_w0
xfeed_484 1 0 decap_w0
xfeed_485 1 0 decap_w0
xfeed_486 1 0 decap_w0
xfeed_487 1 0 decap_w0
xfeed_488 1 0 decap_w0
xfeed_489 1 0 decap_w0
xfeed_520 1 0 decap_w0
xfeed_521 1 0 decap_w0
xfeed_522 1 0 decap_w0
xfeed_523 1 0 decap_w0
xfeed_524 1 0 decap_w0
xfeed_525 1 0 decap_w0
xfeed_526 1 0 decap_w0
xfeed_527 1 0 decap_w0
xfeed_528 1 0 decap_w0
xfeed_529 1 0 decap_w0
xsubckt_3_inv_x0 1 0 2 83 inv_x0
xsubckt_2_inv_x0 1 0 16 84 inv_x0
xsubckt_1_inv_x0 1 0 12 85 inv_x0
xsubckt_0_inv_x0 1 0 4 86 inv_x0
xfeed_1989 1 0 decap_w0
xfeed_1988 1 0 decap_w0
xfeed_1987 1 0 tie
xfeed_1986 1 0 decap_w0
xfeed_1985 1 0 decap_w0
xfeed_1984 1 0 decap_w0
xfeed_1983 1 0 decap_w0
xfeed_1982 1 0 decap_w0
xfeed_1981 1 0 decap_w0
xfeed_1980 1 0 decap_w0
xfeed_490 1 0 decap_w0
xfeed_491 1 0 decap_w0
xfeed_492 1 0 decap_w0
xfeed_493 1 0 decap_w0
xfeed_494 1 0 decap_w0
xfeed_495 1 0 decap_w0
xfeed_496 1 0 decap_w0
xfeed_497 1 0 decap_w0
xfeed_498 1 0 decap_w0
xfeed_499 1 0 decap_w0
xfeed_530 1 0 decap_w0
xfeed_531 1 0 decap_w0
xfeed_532 1 0 decap_w0
xfeed_533 1 0 decap_w0
xfeed_534 1 0 decap_w0
xfeed_535 1 0 decap_w0
xfeed_536 1 0 decap_w0
xfeed_537 1 0 decap_w0
xfeed_538 1 0 decap_w0
xfeed_539 1 0 decap_w0
xfeed_1999 1 0 decap_w0
xfeed_1998 1 0 decap_w0
xfeed_1997 1 0 decap_w0
xfeed_1996 1 0 decap_w0
xfeed_1995 1 0 decap_w0
xfeed_1994 1 0 decap_w0
xfeed_1993 1 0 decap_w0
xfeed_1992 1 0 decap_w0
xfeed_1991 1 0 decap_w0
xfeed_1990 1 0 decap_w0
xfeed_540 1 0 decap_w0
xfeed_541 1 0 decap_w0
xfeed_542 1 0 decap_w0
xfeed_543 1 0 decap_w0
xfeed_544 1 0 decap_w0
xfeed_545 1 0 decap_w0
xfeed_546 1 0 decap_w0
xfeed_547 1 0 decap_w0
xfeed_548 1 0 decap_w0
xfeed_549 1 0 decap_w0
xsubckt_142_nor2_x0 1 0 165 90 2 nor2_x0
xfeed_550 1 0 decap_w0
xfeed_551 1 0 decap_w0
xfeed_552 1 0 decap_w0
xfeed_553 1 0 decap_w0
xfeed_554 1 0 decap_w0
xfeed_555 1 0 decap_w0
xfeed_556 1 0 tie
xfeed_557 1 0 decap_w0
xfeed_558 1 0 decap_w0
xfeed_559 1 0 decap_w0
xsubckt_134_xor2_x0 1 0 6 27 96 xor2_x0
xfeed_560 1 0 decap_w0
xfeed_561 1 0 decap_w0
xfeed_562 1 0 decap_w0
xfeed_563 1 0 decap_w0
xfeed_564 1 0 decap_w0
xfeed_565 1 0 decap_w0
xfeed_566 1 0 decap_w0
xfeed_567 1 0 decap_w0
xfeed_568 1 0 decap_w0
xfeed_569 1 0 decap_w0
xfeed_600 1 0 decap_w0
xfeed_601 1 0 decap_w0
xfeed_602 1 0 decap_w0
xfeed_603 1 0 decap_w0
xfeed_604 1 0 decap_w0
xfeed_605 1 0 decap_w0
xfeed_606 1 0 decap_w0
xfeed_607 1 0 decap_w0
xfeed_608 1 0 decap_w0
xfeed_609 1 0 decap_w0
xfeed_570 1 0 decap_w0
xfeed_571 1 0 decap_w0
xfeed_572 1 0 decap_w0
xfeed_573 1 0 decap_w0
xfeed_574 1 0 decap_w0
xfeed_575 1 0 decap_w0
xfeed_576 1 0 decap_w0
xfeed_610 1 0 decap_w0
xfeed_611 1 0 decap_w0
xfeed_612 1 0 decap_w0
xfeed_613 1 0 decap_w0
xfeed_614 1 0 decap_w0
xfeed_615 1 0 decap_w0
xfeed_616 1 0 decap_w0
xfeed_617 1 0 tie
xfeed_618 1 0 decap_w0
xfeed_619 1 0 decap_w0
xfeed_577 1 0 decap_w0
xfeed_578 1 0 decap_w0
xfeed_579 1 0 decap_w0
xfeed_580 1 0 decap_w0
xfeed_581 1 0 decap_w0
xfeed_582 1 0 decap_w0
xfeed_583 1 0 decap_w0
xfeed_620 1 0 decap_w0
xfeed_621 1 0 decap_w0
xfeed_622 1 0 decap_w0
xfeed_623 1 0 decap_w0
xfeed_624 1 0 decap_w0
xfeed_625 1 0 decap_w0
xfeed_626 1 0 decap_w0
xfeed_627 1 0 tie
xfeed_628 1 0 decap_w0
xfeed_629 1 0 decap_w0
xsubckt_68_nand2_x0 1 0 153 156 161 nand2_x0
xfeed_584 1 0 decap_w0
xfeed_585 1 0 decap_w0
xfeed_586 1 0 decap_w0
xfeed_587 1 0 decap_w0
xfeed_588 1 0 decap_w0
xfeed_589 1 0 decap_w0
xfeed_590 1 0 decap_w0
xfeed_630 1 0 decap_w0
xfeed_631 1 0 decap_w0
xfeed_632 1 0 decap_w0
xfeed_633 1 0 decap_w0
xfeed_634 1 0 decap_w0
xfeed_635 1 0 decap_w0
xfeed_636 1 0 decap_w0
xfeed_637 1 0 decap_w0
xfeed_638 1 0 decap_w0
xfeed_639 1 0 decap_w0
xfeed_591 1 0 decap_w0
xfeed_592 1 0 decap_w0
xfeed_593 1 0 decap_w0
xfeed_594 1 0 decap_w0
xfeed_595 1 0 decap_w0
xfeed_596 1 0 decap_w0
xfeed_597 1 0 decap_w0
xfeed_598 1 0 tie
xfeed_599 1 0 decap_w0
xfeed_640 1 0 decap_w0
xfeed_641 1 0 decap_w0
xfeed_642 1 0 decap_w0
xfeed_643 1 0 decap_w0
xfeed_644 1 0 decap_w0
xfeed_645 1 0 decap_w0
xfeed_646 1 0 decap_w0
xfeed_647 1 0 decap_w0
xfeed_648 1 0 decap_w0
xfeed_649 1 0 decap_w0
xfeed_650 1 0 decap_w0
xfeed_651 1 0 decap_w0
xfeed_652 1 0 decap_w0
xfeed_653 1 0 decap_w0
xfeed_654 1 0 decap_w0
xfeed_655 1 0 decap_w0
xfeed_656 1 0 decap_w0
xfeed_657 1 0 decap_w0
xfeed_658 1 0 decap_w0
xfeed_659 1 0 decap_w0
xsubckt_10_nexor2_x0 1 0 80 81 77 nexor2_x0
xfeed_660 1 0 decap_w0
xfeed_700 1 0 decap_w0
xfeed_701 1 0 decap_w0
xfeed_702 1 0 tie
xfeed_703 1 0 decap_w0
xfeed_704 1 0 decap_w0
xfeed_705 1 0 decap_w0
xfeed_706 1 0 decap_w0
xfeed_707 1 0 decap_w0
xfeed_708 1 0 decap_w0
xfeed_709 1 0 decap_w0
xsubckt_31_and2_x1 1 0 58 12 19 and2_x1
xfeed_661 1 0 decap_w0
xfeed_662 1 0 tie
xfeed_663 1 0 decap_w0
xfeed_664 1 0 decap_w0
xfeed_665 1 0 decap_w0
xfeed_666 1 0 decap_w0
xfeed_667 1 0 decap_w0
xfeed_668 1 0 decap_w0
xfeed_669 1 0 decap_w0
xfeed_710 1 0 decap_w0
xfeed_711 1 0 decap_w0
xfeed_712 1 0 tie
xfeed_713 1 0 decap_w0
xfeed_714 1 0 decap_w0
xfeed_715 1 0 decap_w0
xfeed_716 1 0 decap_w0
xsubckt_22_nexor2_x0 1 0 67 75 66 nexor2_x0
xfeed_670 1 0 decap_w0
xfeed_671 1 0 decap_w0
xfeed_672 1 0 decap_w0
xfeed_673 1 0 decap_w0
xfeed_674 1 0 decap_w0
xfeed_675 1 0 decap_w0
xfeed_676 1 0 decap_w0
xfeed_677 1 0 decap_w0
xfeed_678 1 0 decap_w0
xfeed_679 1 0 decap_w0
xfeed_717 1 0 decap_w0
xfeed_718 1 0 decap_w0
xfeed_719 1 0 decap_w0
xfeed_720 1 0 decap_w0
xfeed_721 1 0 decap_w0
xfeed_722 1 0 decap_w0
xfeed_723 1 0 decap_w0
xsubckt_60_or21nand_x0 1 0 161 56 49 53 or21nand_x0
xfeed_680 1 0 decap_w0
xfeed_681 1 0 decap_w0
xfeed_682 1 0 decap_w0
xfeed_683 1 0 decap_w0
xfeed_684 1 0 decap_w0
xfeed_685 1 0 decap_w0
xfeed_686 1 0 decap_w0
xfeed_687 1 0 decap_w0
xfeed_688 1 0 decap_w0
xfeed_689 1 0 decap_w0
xfeed_724 1 0 decap_w0
xfeed_725 1 0 decap_w0
xfeed_726 1 0 decap_w0
xfeed_727 1 0 decap_w0
xfeed_728 1 0 decap_w0
xfeed_729 1 0 decap_w0
xfeed_730 1 0 decap_w0
xfeed_690 1 0 decap_w0
xfeed_691 1 0 decap_w0
xfeed_692 1 0 decap_w0
xfeed_693 1 0 decap_w0
xfeed_694 1 0 decap_w0
xfeed_695 1 0 decap_w0
xfeed_696 1 0 decap_w0
xfeed_697 1 0 decap_w0
xfeed_698 1 0 decap_w0
xfeed_699 1 0 decap_w0
xfeed_731 1 0 decap_w0
xfeed_732 1 0 decap_w0
xfeed_733 1 0 decap_w0
xfeed_734 1 0 decap_w0
xfeed_735 1 0 decap_w0
xfeed_736 1 0 decap_w0
xfeed_737 1 0 decap_w0
xfeed_738 1 0 decap_w0
xfeed_739 1 0 decap_w0
xfeed_740 1 0 decap_w0
xfeed_741 1 0 decap_w0
xfeed_742 1 0 decap_w0
xfeed_743 1 0 decap_w0
xfeed_744 1 0 decap_w0
xfeed_745 1 0 decap_w0
xfeed_746 1 0 decap_w0
xfeed_747 1 0 decap_w0
xfeed_748 1 0 decap_w0
xfeed_749 1 0 decap_w0
xsubckt_37_nexor2_x0 1 0 58 59 52 nexor2_x0
xsubckt_85_nexor2_x0 1 0 138 140 137 nexor2_x0
xsubckt_56_or21nand_x0 1 0 34 40 44 45 or21nand_x0
xfeed_750 1 0 decap_w0
xfeed_751 1 0 decap_w0
xfeed_752 1 0 decap_w0
xfeed_753 1 0 decap_w0
xfeed_754 1 0 decap_w0
xfeed_755 1 0 decap_w0
xfeed_756 1 0 decap_w0
xfeed_757 1 0 decap_w0
xfeed_758 1 0 decap_w0
xfeed_759 1 0 decap_w0
xsubckt_12_and2_x1 1 0 76 17 15 and2_x1
xsubckt_51_and2_x1 1 0 38 39 65 and2_x1
xfeed_800 1 0 decap_w0
xsubckt_86_and2_x1 1 0 136 137 141 and2_x1
xfeed_760 1 0 decap_w0
xfeed_761 1 0 decap_w0
xfeed_762 1 0 decap_w0
xfeed_763 1 0 decap_w0
xfeed_764 1 0 decap_w0
xfeed_765 1 0 decap_w0
xfeed_766 1 0 decap_w0
xfeed_767 1 0 decap_w0
xfeed_768 1 0 decap_w0
xfeed_769 1 0 decap_w0
xfeed_801 1 0 decap_w0
xfeed_802 1 0 decap_w0
xfeed_803 1 0 decap_w0
xfeed_804 1 0 decap_w0
xfeed_805 1 0 decap_w0
xfeed_806 1 0 decap_w0
xfeed_807 1 0 decap_w0
xfeed_808 1 0 decap_w0
xfeed_809 1 0 decap_w0
xsubckt_136_and2_x1 1 0 166 95 83 and2_x1
xsubckt_88_nexor2_x0 1 0 137 142 134 nexor2_x0
xfeed_770 1 0 decap_w0
xfeed_771 1 0 decap_w0
xfeed_772 1 0 decap_w0
xfeed_773 1 0 decap_w0
xfeed_774 1 0 tie
xfeed_775 1 0 decap_w0
xfeed_776 1 0 decap_w0
xfeed_777 1 0 decap_w0
xfeed_778 1 0 decap_w0
xfeed_779 1 0 decap_w0
xfeed_810 1 0 decap_w0
xfeed_811 1 0 decap_w0
xfeed_812 1 0 decap_w0
xfeed_813 1 0 decap_w0
xfeed_814 1 0 decap_w0
xfeed_815 1 0 decap_w0
xfeed_816 1 0 decap_w0
xfeed_817 1 0 decap_w0
xfeed_818 1 0 decap_w0
xfeed_819 1 0 tie
xsubckt_102_or21nand_x0 1 0 173 125 123 122 or21nand_x0
xfeed_780 1 0 decap_w0
xfeed_781 1 0 decap_w0
xfeed_782 1 0 decap_w0
xfeed_783 1 0 decap_w0
xfeed_784 1 0 decap_w0
xfeed_785 1 0 decap_w0
xfeed_786 1 0 decap_w0
xfeed_787 1 0 decap_w0
xfeed_788 1 0 decap_w0
xfeed_789 1 0 decap_w0
xfeed_820 1 0 decap_w0
xfeed_821 1 0 decap_w0
xfeed_822 1 0 decap_w0
xfeed_823 1 0 decap_w0
xfeed_824 1 0 decap_w0
xfeed_825 1 0 decap_w0
xfeed_826 1 0 decap_w0
xfeed_827 1 0 decap_w0
xfeed_828 1 0 decap_w0
xfeed_829 1 0 decap_w0
xsubckt_4_and2_x1 1 0 82 15 19 and2_x1
xfeed_790 1 0 decap_w0
xfeed_791 1 0 decap_w0
xfeed_792 1 0 decap_w0
xfeed_793 1 0 decap_w0
xfeed_794 1 0 decap_w0
xfeed_795 1 0 decap_w0
xfeed_796 1 0 decap_w0
xfeed_797 1 0 decap_w0
xfeed_798 1 0 decap_w0
xfeed_799 1 0 decap_w0
xfeed_830 1 0 decap_w0
xfeed_831 1 0 decap_w0
xfeed_832 1 0 decap_w0
xfeed_833 1 0 decap_w0
xfeed_834 1 0 decap_w0
xfeed_835 1 0 decap_w0
xfeed_836 1 0 decap_w0
xfeed_837 1 0 decap_w0
xfeed_838 1 0 decap_w0
xfeed_839 1 0 tie
xsubckt_116_xor2_x0 1 0 9 30 111 xor2_x0
xfeed_840 1 0 decap_w0
xfeed_841 1 0 decap_w0
xfeed_842 1 0 decap_w0
xfeed_843 1 0 decap_w0
xfeed_844 1 0 decap_w0
xfeed_845 1 0 decap_w0
xfeed_846 1 0 decap_w0
xfeed_847 1 0 decap_w0
xfeed_848 1 0 decap_w0
xfeed_849 1 0 decap_w0
xfeed_850 1 0 decap_w0
xfeed_851 1 0 decap_w0
xfeed_852 1 0 decap_w0
xfeed_853 1 0 decap_w0
xfeed_854 1 0 decap_w0
xfeed_855 1 0 decap_w0
xfeed_856 1 0 decap_w0
xfeed_857 1 0 decap_w0
xfeed_858 1 0 decap_w0
xfeed_859 1 0 decap_w0
xsubckt_67_and2_x1 1 0 154 156 161 and2_x1
xfeed_860 1 0 decap_w0
xfeed_861 1 0 decap_w0
xfeed_862 1 0 decap_w0
xfeed_863 1 0 decap_w0
xfeed_864 1 0 tie
xfeed_865 1 0 decap_w0
xfeed_866 1 0 decap_w0
xfeed_867 1 0 decap_w0
xfeed_868 1 0 decap_w0
xfeed_869 1 0 decap_w0
xfeed_900 1 0 decap_w0
xfeed_901 1 0 decap_w0
xfeed_902 1 0 decap_w0
xfeed_903 1 0 decap_w0
xfeed_904 1 0 decap_w0
xfeed_905 1 0 decap_w0
xfeed_906 1 0 decap_w0
xfeed_907 1 0 decap_w0
xfeed_908 1 0 decap_w0
xfeed_909 1 0 decap_w0
xfeed_870 1 0 decap_w0
xfeed_871 1 0 decap_w0
xfeed_872 1 0 decap_w0
xfeed_873 1 0 decap_w0
xfeed_874 1 0 decap_w0
xfeed_875 1 0 decap_w0
xfeed_876 1 0 decap_w0
xfeed_877 1 0 decap_w0
xfeed_878 1 0 tie
xfeed_879 1 0 decap_w0
xfeed_910 1 0 decap_w0
xfeed_911 1 0 decap_w0
xfeed_912 1 0 decap_w0
xfeed_913 1 0 decap_w0
xfeed_914 1 0 decap_w0
xfeed_915 1 0 decap_w0
xfeed_916 1 0 decap_w0
xfeed_917 1 0 decap_w0
xfeed_918 1 0 decap_w0
xfeed_919 1 0 decap_w0
xfeed_880 1 0 decap_w0
xfeed_881 1 0 decap_w0
xfeed_882 1 0 decap_w0
xfeed_883 1 0 decap_w0
xfeed_884 1 0 decap_w0
xfeed_885 1 0 decap_w0
xfeed_886 1 0 decap_w0
xfeed_887 1 0 decap_w0
xfeed_888 1 0 decap_w0
xfeed_889 1 0 decap_w0
xfeed_920 1 0 decap_w0
xfeed_921 1 0 decap_w0
xfeed_922 1 0 decap_w0
xfeed_923 1 0 decap_w0
xfeed_924 1 0 decap_w0
xfeed_925 1 0 decap_w0
xfeed_926 1 0 tie
xfeed_927 1 0 decap_w0
xfeed_928 1 0 decap_w0
xfeed_929 1 0 decap_w0
xsubckt_140_xor2_x0 1 0 5 26 91 xor2_x0
xsubckt_115_or2_x1 1 0 112 9 30 or2_x1
xsubckt_40_nand2_x0 1 0 49 17 14 nand2_x0
xfeed_890 1 0 decap_w0
xfeed_891 1 0 decap_w0
xfeed_892 1 0 decap_w0
xfeed_893 1 0 decap_w0
xfeed_894 1 0 tie
xfeed_895 1 0 decap_w0
xfeed_896 1 0 decap_w0
xfeed_897 1 0 decap_w0
xfeed_898 1 0 decap_w0
xfeed_899 1 0 decap_w0
xfeed_930 1 0 decap_w0
xfeed_931 1 0 decap_w0
xfeed_932 1 0 decap_w0
xfeed_933 1 0 decap_w0
xfeed_934 1 0 decap_w0
xfeed_935 1 0 decap_w0
xfeed_936 1 0 decap_w0
xfeed_937 1 0 decap_w0
xfeed_938 1 0 decap_w0
xfeed_939 1 0 decap_w0
xsubckt_100_or21nand_x0 1 0 123 126 131 83 or21nand_x0
xsubckt_87_nand2_x0 1 0 135 137 141 nand2_x0
xsubckt_59_and21nor_x0 1 0 162 55 50 54 and21nor_x0
xfeed_940 1 0 decap_w0
xfeed_941 1 0 decap_w0
xfeed_942 1 0 decap_w0
xfeed_943 1 0 decap_w0
xfeed_944 1 0 decap_w0
xfeed_945 1 0 decap_w0
xfeed_946 1 0 decap_w0
xfeed_947 1 0 decap_w0
xfeed_948 1 0 decap_w0
xfeed_949 1 0 decap_w0
xsubckt_53_or21nand_x0 1 0 176 37 38 63 or21nand_x0
xsubckt_70_nand2_x0 1 0 151 155 162 nand2_x0
xfeed_950 1 0 decap_w0
xfeed_951 1 0 decap_w0
xfeed_952 1 0 decap_w0
xfeed_953 1 0 decap_w0
xfeed_954 1 0 decap_w0
xfeed_955 1 0 decap_w0
xfeed_956 1 0 tie
xfeed_957 1 0 decap_w0
xfeed_958 1 0 decap_w0
xfeed_959 1 0 decap_w0
xsubckt_48_and2_x1 1 0 41 16 15 and2_x1
xfeed_960 1 0 decap_w0
xfeed_961 1 0 decap_w0
xfeed_962 1 0 decap_w0
xfeed_963 1 0 decap_w0
xfeed_964 1 0 decap_w0
xfeed_965 1 0 decap_w0
xfeed_966 1 0 tie
xfeed_967 1 0 decap_w0
xfeed_968 1 0 decap_w0
xfeed_969 1 0 decap_w0
xfeed_970 1 0 decap_w0
xfeed_971 1 0 decap_w0
xfeed_972 1 0 decap_w0
xfeed_973 1 0 decap_w0
xfeed_974 1 0 decap_w0
xfeed_975 1 0 decap_w0
xfeed_976 1 0 decap_w0
xfeed_977 1 0 decap_w0
xfeed_978 1 0 decap_w0
xfeed_979 1 0 decap_w0
xsubckt_132_nand2_x0 1 0 98 6 27 nand2_x0
xfeed_980 1 0 decap_w0
xfeed_981 1 0 decap_w0
xfeed_982 1 0 decap_w0
xfeed_983 1 0 decap_w0
xfeed_984 1 0 decap_w0
xfeed_985 1 0 decap_w0
xfeed_986 1 0 decap_w0
xfeed_987 1 0 decap_w0
xfeed_988 1 0 decap_w0
xfeed_989 1 0 tie
xdiode_3 1 0 22 diode_w1
xdiode_2 1 0 22 diode_w1
xdiode_1 1 0 22 diode_w1
xdiode_0 1 0 22 diode_w1
xfeed_990 1 0 decap_w0
xfeed_991 1 0 decap_w0
xfeed_992 1 0 decap_w0
xfeed_993 1 0 decap_w0
xfeed_994 1 0 decap_w0
xfeed_995 1 0 decap_w0
xfeed_996 1 0 decap_w0
xfeed_997 1 0 decap_w0
xfeed_998 1 0 decap_w0
xfeed_999 1 0 decap_w0
xsubckt_145_nexor2_x0 1 0 88 89 87 nexor2_x0
xsubckt_52_or21nand_x0 1 0 37 39 65 83 or21nand_x0
xsubckt_33_and2_x1 1 0 56 57 59 and2_x1
xsubckt_104_and21nor_x0 1 0 172 129 124 121 and21nor_x0
xsubckt_29_and2_x1 1 0 60 13 18 and2_x1
xfeed_10 1 0 decap_w0
xfeed_11 1 0 decap_w0
xfeed_13 1 0 decap_w0
xfeed_14 1 0 decap_w0
xfeed_15 1 0 tie
xfeed_16 1 0 decap_w0
xfeed_17 1 0 decap_w0
xfeed_18 1 0 decap_w0
xfeed_19 1 0 decap_w0
xfeed_21 1 0 decap_w0
xfeed_22 1 0 decap_w0
xfeed_23 1 0 tie
xfeed_24 1 0 decap_w0
xfeed_25 1 0 decap_w0
xfeed_26 1 0 decap_w0
xfeed_27 1 0 decap_w0
xfeed_28 1 0 decap_w0
xfeed_29 1 0 decap_w0
xsubckt_14_nand2_x0 1 0 74 18 14 nand2_x0
xfeed_30 1 0 decap_w0
xfeed_31 1 0 decap_w0
xfeed_32 1 0 decap_w0
xfeed_33 1 0 decap_w0
xfeed_34 1 0 decap_w0
xfeed_35 1 0 decap_w0
xfeed_36 1 0 decap_w0
xfeed_37 1 0 decap_w0
xfeed_38 1 0 decap_w0
xfeed_39 1 0 decap_w0
xsubckt_44_nand2_x0 1 0 45 48 61 nand2_x0
xfeed_40 1 0 tie
xfeed_41 1 0 decap_w0
xfeed_42 1 0 decap_w0
xfeed_43 1 0 decap_w0
xfeed_44 1 0 decap_w0
xfeed_45 1 0 decap_w0
xfeed_46 1 0 decap_w0
xsubckt_127_or2_x1 1 0 102 7 28 or2_x1
xfeed_47 1 0 tie
xfeed_48 1 0 decap_w0
xfeed_49 1 0 decap_w0
xfeed_50 1 0 decap_w0
xfeed_51 1 0 decap_w0
xfeed_52 1 0 decap_w0
xfeed_53 1 0 decap_w0
xsubckt_95_or21nand_x0 1 0 128 85 84 157 or21nand_x0
xfeed_54 1 0 decap_w0
xfeed_55 1 0 decap_w0
xfeed_56 1 0 decap_w0
xfeed_57 1 0 decap_w0
xfeed_58 1 0 decap_w0
xfeed_59 1 0 decap_w0
xsubckt_74_nand2_x0 1 0 147 149 34 nand2_x0
xfeed_60 1 0 decap_w0
xsubckt_103_and2_x1 1 0 121 2 86 and2_x1
xfeed_61 1 0 decap_w0
xfeed_62 1 0 decap_w0
xfeed_63 1 0 decap_w0
xfeed_64 1 0 decap_w0
xfeed_65 1 0 decap_w0
xfeed_66 1 0 decap_w0
xfeed_67 1 0 decap_w0
xfeed_68 1 0 decap_w0
xfeed_69 1 0 decap_w0
xsubckt_138_and2_x1 1 0 93 5 26 and2_x1
xfeed_70 1 0 decap_w0
xfeed_71 1 0 decap_w0
xfeed_72 1 0 decap_w0
xfeed_73 1 0 decap_w0
xfeed_74 1 0 decap_w0
xfeed_75 1 0 decap_w0
xfeed_76 1 0 decap_w0
xfeed_77 1 0 decap_w0
xfeed_78 1 0 decap_w0
xfeed_79 1 0 decap_w0
xsubckt_16_nand2_x0 1 0 72 13 19 nand2_x0
xfeed_80 1 0 decap_w0
xfeed_81 1 0 decap_w0
xfeed_82 1 0 decap_w0
xfeed_83 1 0 decap_w0
xfeed_84 1 0 decap_w0
xfeed_85 1 0 decap_w0
xfeed_86 1 0 decap_w0
xfeed_87 1 0 decap_w0
xfeed_88 1 0 decap_w0
xfeed_89 1 0 decap_w0
xsubckt_130_nor2_x0 1 0 167 100 2 nor2_x0
xsubckt_122_xor2_x0 1 0 8 29 106 xor2_x0
xfeed_90 1 0 decap_w0
xfeed_91 1 0 decap_w0
xfeed_92 1 0 decap_w0
xfeed_93 1 0 decap_w0
xfeed_94 1 0 decap_w0
xfeed_95 1 0 decap_w0
xfeed_96 1 0 decap_w0
xfeed_97 1 0 decap_w0
xfeed_98 1 0 decap_w0
xfeed_99 1 0 decap_w0
xsubckt_46_nand2_x0 1 0 43 47 62 nand2_x0
xsubckt_55_and21nor_x0 1 0 35 41 43 46 and21nor_x0
xsubckt_137_or21nand_x0 1 0 94 99 97 98 or21nand_x0
xsubckt_73_and2_x1 1 0 148 149 34 and2_x1
xsubckt_108_nand2_x0 1 0 118 10 31 nand2_x0
xsubckt_99_and21nor_x0 1 0 124 127 130 2 and21nor_x0
xsubckt_69_and2_x1 1 0 152 155 162 and2_x1
xsubckt_25_mux2_x1 1 0 9 64 83 177 mux2_x1
xsubckt_93_or21nand_x0 1 0 130 147 133 135 or21nand_x0
xsubckt_149_dff_x1 1 0 177 22 9 dff_x1
xsubckt_148_dff_x1 1 0 178 22 10 dff_x1
xsubckt_147_dff_x1 1 0 179 22 11 dff_x1
xspare_buffer_0 1 0 23 22 buf_x4